
 Fire Dynamics Simulator

 Current Date     : January 19, 2018  11:46:05
 Version          : FDS 6.5.3
 Revision         : FDS6.5.3-598-geb56ed1
 Revision Date    : Thu Jan 19 16:12:59 2017 -0500
 Compilation Date : Jan 22, 2017  18:04:30

 MPI Enabled; Number of MPI Processes:          1
 OpenMP Enabled; Number of OpenMP Threads:   4

 MPI version: 3.0
 MPI library version: Open MPI v1.8.4, package: Open MPI gforney@burn Distribution, ident: 1.8.4, repo rev: v1.8.3-330-g0344f04, Dec 19, 2014

 Job TITLE        : UT Fire Whirl
 Job ID string    : fire_whirl_pool


 Grid Dimensions, Mesh     1

   Cells in the X Direction            16
   Cells in the Y Direction            16
   Cells in the Z Direction            64


 Physical Dimensions, Mesh     1

   Length (m)                       2.000
   Width  (m)                       2.000
   Height (m)                       8.000
   Initial Time Step (s)            0.070


 Miscellaneous Parameters

   Simulation Start Time (s)          0.0
   Simulation End Time (s)           15.0
   LES Calculation
   Deardorff Model (C_DEARDORFF)     0.10
   Turbulent Prandtl Number          0.50
   Turbulent Schmidt Number          0.50
   Ambient Temperature (C)          20.00


 Mass Fraction Transformation Matrix to Convert Species Mixtures (Columns) to Primitive Species (Rows)

                         AIR       N-HEPTAN  PRODUCTS
   N-HEPTANE             0.000000  1.000000  0.000000
   NITROGEN              0.763077  0.000000  0.714661
   OXYGEN                0.231181  0.000000  0.000000
   CARBON DIOXIDE        0.000592  0.000000  0.187103
   CARBON MONOXIDE       0.000000  0.000000  0.000000
   WATER VAPOR           0.005149  0.000000  0.095889
   SOOT                  0.000000  0.000000  0.002348


 Primitive Species Information

   N-HEPTANE
   Gas Species
   Molecular Weight (g/mol)           100.20194
   Ambient Density (kg/m^3)            4.166
   Enthalpy of Formation (J/kg)       -1.87E+06

   NITROGEN
   Gas Species
   Molecular Weight (g/mol)            28.01340
   Ambient Density (kg/m^3)            1.165
   Enthalpy of Formation (J/kg)        0.00E+00

   OXYGEN
   Gas Species
   Molecular Weight (g/mol)            31.99880
   Ambient Density (kg/m^3)            1.330
   Enthalpy of Formation (J/kg)        0.00E+00

   CARBON DIOXIDE
   Gas Species
   Molecular Weight (g/mol)            44.00950
   Ambient Density (kg/m^3)            1.830
   Enthalpy of Formation (J/kg)       -8.94E+06

   CARBON MONOXIDE
   Gas Species
   Molecular Weight (g/mol)            28.01010
   Ambient Density (kg/m^3)            1.164
   Enthalpy of Formation (J/kg)       -3.95E+06

   WATER VAPOR
   Gas Species
   Molecular Weight (g/mol)            18.01528
   Ambient Density (kg/m^3)            0.749
   Enthalpy of Formation (J/kg)       -1.34E+07

   SOOT
   Gas Species
   Molecular Weight (g/mol)            10.91042
   Ambient Density (kg/m^3)            0.454
   Enthalpy of Formation (J/kg)        0.00E+00


 Tracked (Lumped) Species Information

   AIR
   Molecular Weight (g/mol)            28.76564
   Ambient Density (kg/m^3)            1.196
   Initial Mass Fraction               1.000
   Enthalpy of Formation (J/kg)     -7.44E+04

   Sub Species                    Mass Fraction     Mole Fraction
   NITROGEN                       7.630774E-01      7.835682E-01
   OXYGEN                         2.311814E-01      2.078229E-01
   CARBON DIOXIDE                 5.919362E-04      3.869034E-04
   WATER VAPOR                    5.149269E-03      8.222023E-03
 
     Viscosity (kg/m/s) Ambient,  293 K:  1.80E-05
                                  500 K:  2.61E-05
                                 1000 K:  4.13E-05
                                 1500 K:  5.37E-05
   Therm. Cond. (W/m/K) Ambient,  293 K:  2.56E-02
                                  500 K:  3.81E-02
                                 1000 K:  6.68E-02
                                 1500 K:  9.24E-02
        Enthalpy (J/kg) Ambient,  293 K: -7.97E+04
                                  500 K: -1.36E+05
                                 1000 K: -2.72E+05
                                 1500 K: -4.08E+05
    Spec. Heat (J/kg/K) Ambient,  293 K:  1.02E+03
                                  500 K:  1.04E+03
                                 1000 K:  1.16E+03
                                 1500 K:  1.23E+03
   Diff. Coeff. (m^2/s) Ambient,  293 K:  1.99E-05
                                  500 K:  4.96E-05
                                 1000 K:  1.58E-04
                                 1500 K:  3.09E-04

   N-HEPTANE
   Molecular Weight (g/mol)           100.20194
   Ambient Density (kg/m^3)            4.166
   Initial Mass Fraction               0.000
   Enthalpy of Formation (J/kg)     -1.87E+06

   Sub Species                    Mass Fraction     Mole Fraction
   N-HEPTANE                      1.000000E+00      1.000000E+00
 
     Viscosity (kg/m/s) Ambient,  293 K:  1.54E-05
                                  500 K:  2.45E-05
                                 1000 K:  4.11E-05
                                 1500 K:  5.41E-05
   Therm. Cond. (W/m/K) Ambient,  293 K:  3.02E-02
                                  500 K:  7.42E-02
                                 1000 K:  1.89E-01
                                 1500 K:  2.89E-01
        Enthalpy (J/kg) Ambient,  293 K: -1.88E+06
                                  500 K: -3.21E+06
                                 1000 K: -6.42E+06
                                 1500 K: -9.64E+06
    Spec. Heat (J/kg/K) Ambient,  293 K:  1.63E+03
                                  500 K:  2.52E+03
                                 1000 K:  3.81E+03
                                 1500 K:  4.43E+03
   Diff. Coeff. (m^2/s) Ambient,  293 K:  1.10E-05
                                  500 K:  2.83E-05
                                 1000 K:  9.18E-05
                                 1500 K:  1.80E-04

   PRODUCTS
   Molecular Weight (g/mol)            28.32812
   Ambient Density (kg/m^3)            1.178
   Initial Mass Fraction               0.000
   Enthalpy of Formation (J/kg)     -2.96E+06

   Sub Species                    Mass Fraction     Mole Fraction
   NITROGEN                       7.146609E-01      7.226899E-01
   CARBON DIOXIDE                 1.871029E-01      1.204348E-01
   CARBON MONOXIDE                0.000000E+00      0.000000E+00
   WATER VAPOR                    9.588857E-02      1.507800E-01
   SOOT                           2.347613E-03      6.095407E-03
 
     Viscosity (kg/m/s) Ambient,  293 K:  1.62E-05
                                  500 K:  2.39E-05
                                 1000 K:  3.89E-05
                                 1500 K:  5.14E-05
   Therm. Cond. (W/m/K) Ambient,  293 K:  2.34E-02
                                  500 K:  3.62E-02
                                 1000 K:  6.70E-02
                                 1500 K:  9.59E-02
        Enthalpy (J/kg) Ambient,  293 K: -2.97E+06
                                  500 K: -5.06E+06
                                 1000 K: -1.01E+07
                                 1500 K: -1.52E+07
    Spec. Heat (J/kg/K) Ambient,  293 K:  1.08E+03
                                  500 K:  1.13E+03
                                 1000 K:  1.29E+03
                                 1500 K:  1.39E+03
   Diff. Coeff. (m^2/s) Ambient,  293 K:  1.95E-05
                                  500 K:  4.94E-05
                                 1000 K:  1.60E-04
                                 1500 K:  3.14E-04


 Gas Phase Reaction Information

   Heptane, C_7 H_16

   Fuel                                           Heat of Combustion (kJ/kg)
   N-HEPTANE                                                      43681.2148

   Stoichiometry

   Primitive Species
   Species ID                                                 Stoich. Coeff.
   N-HEPTANE                                                       -1.000000
   NITROGEN                                                        -0.000000
   OXYGEN                                                         -10.685676
   CARBON DIOXIDE                                                   6.694171
   WATER VAPOR                                                      7.983009
   SOOT                                                             0.339810

   Tracked (Lumped) Species
   Species ID                                                 Stoich. Coeff.
   AIR                                                            -51.417231
   N-HEPTANE                                                       -1.000000
   PRODUCTS                                                        55.748546

   Reaction Kinetics

   Arrhenius Parameters
   Pre-exponential:    Infinite
   Activation Energy:  N/A

   ODE Solver:  EXPLICIT EULER
   Extinction Model:  EXTINCTION 2
   Ignition Temperature (K):            0.0
   Critical Flame Temperature (K):   1600.2


 Material Information

   1 HEPTANE LIQUID                                              
     Emissivity                      1.000
     Density (kg/m3)                 684.0
     Specific Heat (kJ/kg/K)          2.25
     Conductivity (W/m/K)           0.1400
     Absorption coefficient (1/m)  1000.00
     Liquid evaporation reaction
        Gaseous Yields:
        AIR                                                         :     0.00
        N-HEPTANE                                                   :     1.00
        PRODUCTS                                                    :     0.00
        Boiling temperature (C):    98.50
        H_R (kJ/kg)            :  3.65E+02

   2 STEEL                                                       
     Emissivity                      1.000
     Density (kg/m3)                7850.0
     Specific Heat (kJ/kg/K)          0.46
     Conductivity (W/m/K)          45.8000


 Surface Conditions

   0 INERT (DEFAULT)

   1 HEPTANE POOL
     Material List
          1  HEPTANE LIQUID
     Layer  1
        Thickness   (m):  0.10000
        Density (kg/m3):   684.00
        HEPTANE LIQUID, Mass fraction:    1.00
     Total surface density    68.400 kg/m2
     Reaction products considered from the first  0.50 layers.
     Solid Phase Node, Layer, Coordinates(m):
                    0      1       0.0000000
                    1      1       0.0003012
                    2      1       0.0006024
                    3      1       0.0009036
                    4      1       0.0012048
                    5      1       0.0015060
                    6      1       0.0018072
                    7      1       0.0021084
                    8      1       0.0024096
                    9      1       0.0027108
                   10      1       0.0030120
                   11      1       0.0033133
                   12      1       0.0036145
                   13      1       0.0039157
                   14      1       0.0042169
                   15      1       0.0045181
                   16      1       0.0048193
                   17      1       0.0051205
                   18      1       0.0054217
                   19      1       0.0057229
                   20      1       0.0060241
                   21      1       0.0063253
                   22      1       0.0066265
                   23      1       0.0069277
                   24      1       0.0072289
                   25      1       0.0075301
                   26      1       0.0078313
                   27      1       0.0081325
                   28      1       0.0084337
                   29      1       0.0087349
                   30      1       0.0090361
                   31      1       0.0093373
                   32      1       0.0096386
                   33      1       0.0099398
                   34      1       0.0102410
                   35      1       0.0105422
                   36      1       0.0108434
                   37      1       0.0111446
                   38      1       0.0114458
                   39      1       0.0117470
                   40      1       0.0120482
                   41      1       0.0123494
                   42      1       0.0126506
                   43      1       0.0129518
                   44      1       0.0132530
                   45      1       0.0135542
                   46      1       0.0138554
                   47      1       0.0141566
                   48      1       0.0144578
                   49      1       0.0147590
                   50      1       0.0150602
                   51      1       0.0153614
                   52      1       0.0156627
                   53      1       0.0159639
                   54      1       0.0162651
                   55      1       0.0165663
                   56      1       0.0168675
                   57      1       0.0171687
                   58      1       0.0174699
                   59      1       0.0177711
                   60      1       0.0180723
                   61      1       0.0183735
                   62      1       0.0186747
                   63      1       0.0189759
                   64      1       0.0192771
                   65      1       0.0195783
                   66      1       0.0198795
                   67      1       0.0201807
                   68      1       0.0204819
                   69      1       0.0207831
                   70      1       0.0210843
                   71      1       0.0213855
                   72      1       0.0216867
                   73      1       0.0219880
                   74      1       0.0222892
                   75      1       0.0225904
                   76      1       0.0228916
                   77      1       0.0231928
                   78      1       0.0234940
                   79      1       0.0237952
                   80      1       0.0240964
                   81      1       0.0243976
                   82      1       0.0246988
                   83      1       0.0250000
                   84      1       0.0253012
                   85      1       0.0256024
                   86      1       0.0259036
                   87      1       0.0262048
                   88      1       0.0265060
                   89      1       0.0268072
                   90      1       0.0271084
                   91      1       0.0274096
                   92      1       0.0277108
                   93      1       0.0280120
                   94      1       0.0283133
                   95      1       0.0286145
                   96      1       0.0289157
                   97      1       0.0292169
                   98      1       0.0295181
                   99      1       0.0298193
                  100      1       0.0301205
                  101      1       0.0304217
                  102      1       0.0307229
                  103      1       0.0310241
                  104      1       0.0313253
                  105      1       0.0316265
                  106      1       0.0319277
                  107      1       0.0322289
                  108      1       0.0325301
                  109      1       0.0328313
                  110      1       0.0331325
                  111      1       0.0334337
                  112      1       0.0337349
                  113      1       0.0340361
                  114      1       0.0343373
                  115      1       0.0346386
                  116      1       0.0349398
                  117      1       0.0352410
                  118      1       0.0355422
                  119      1       0.0358434
                  120      1       0.0361446
                  121      1       0.0364458
                  122      1       0.0367470
                  123      1       0.0370482
                  124      1       0.0373494
                  125      1       0.0376506
                  126      1       0.0379518
                  127      1       0.0382530
                  128      1       0.0385542
                  129      1       0.0388554
                  130      1       0.0391566
                  131      1       0.0394578
                  132      1       0.0397590
                  133      1       0.0400602
                  134      1       0.0403614
                  135      1       0.0406627
                  136      1       0.0409639
                  137      1       0.0412651
                  138      1       0.0415663
                  139      1       0.0418675
                  140      1       0.0421687
                  141      1       0.0424699
                  142      1       0.0427711
                  143      1       0.0430723
                  144      1       0.0433735
                  145      1       0.0436747
                  146      1       0.0439759
                  147      1       0.0442771
                  148      1       0.0445783
                  149      1       0.0448795
                  150      1       0.0451807
                  151      1       0.0454819
                  152      1       0.0457831
                  153      1       0.0460843
                  154      1       0.0463855
                  155      1       0.0466867
                  156      1       0.0469880
                  157      1       0.0472892
                  158      1       0.0475904
                  159      1       0.0478916
                  160      1       0.0481928
                  161      1       0.0484940
                  162      1       0.0487952
                  163      1       0.0490964
                  164      1       0.0493976
                  165      1       0.0496988
                  166      1       0.0500000
                  167      1       0.0503012
                  168      1       0.0506024
                  169      1       0.0509036
                  170      1       0.0512048
                  171      1       0.0515060
                  172      1       0.0518072
                  173      1       0.0521084
                  174      1       0.0524096
                  175      1       0.0527108
                  176      1       0.0530120
                  177      1       0.0533133
                  178      1       0.0536145
                  179      1       0.0539157
                  180      1       0.0542169
                  181      1       0.0545181
                  182      1       0.0548193
                  183      1       0.0551205
                  184      1       0.0554217
                  185      1       0.0557229
                  186      1       0.0560241
                  187      1       0.0563253
                  188      1       0.0566265
                  189      1       0.0569277
                  190      1       0.0572289
                  191      1       0.0575301
                  192      1       0.0578313
                  193      1       0.0581325
                  194      1       0.0584337
                  195      1       0.0587349
                  196      1       0.0590361
                  197      1       0.0593373
                  198      1       0.0596386
                  199      1       0.0599398
                  200      1       0.0602410
                  201      1       0.0605422
                  202      1       0.0608434
                  203      1       0.0611446
                  204      1       0.0614458
                  205      1       0.0617470
                  206      1       0.0620482
                  207      1       0.0623494
                  208      1       0.0626506
                  209      1       0.0629518
                  210      1       0.0632530
                  211      1       0.0635542
                  212      1       0.0638554
                  213      1       0.0641566
                  214      1       0.0644578
                  215      1       0.0647590
                  216      1       0.0650602
                  217      1       0.0653614
                  218      1       0.0656627
                  219      1       0.0659639
                  220      1       0.0662651
                  221      1       0.0665663
                  222      1       0.0668675
                  223      1       0.0671687
                  224      1       0.0674699
                  225      1       0.0677711
                  226      1       0.0680723
                  227      1       0.0683735
                  228      1       0.0686747
                  229      1       0.0689759
                  230      1       0.0692771
                  231      1       0.0695783
                  232      1       0.0698795
                  233      1       0.0701807
                  234      1       0.0704819
                  235      1       0.0707831
                  236      1       0.0710843
                  237      1       0.0713855
                  238      1       0.0716867
                  239      1       0.0719880
                  240      1       0.0722892
                  241      1       0.0725904
                  242      1       0.0728916
                  243      1       0.0731928
                  244      1       0.0734940
                  245      1       0.0737952
                  246      1       0.0740964
                  247      1       0.0743976
                  248      1       0.0746988
                  249      1       0.0750000
                  250      1       0.0753012
                  251      1       0.0756024
                  252      1       0.0759036
                  253      1       0.0762048
                  254      1       0.0765060
                  255      1       0.0768072
                  256      1       0.0771084
                  257      1       0.0774096
                  258      1       0.0777108
                  259      1       0.0780120
                  260      1       0.0783133
                  261      1       0.0786145
                  262      1       0.0789157
                  263      1       0.0792169
                  264      1       0.0795181
                  265      1       0.0798193
                  266      1       0.0801205
                  267      1       0.0804217
                  268      1       0.0807229
                  269      1       0.0810241
                  270      1       0.0813253
                  271      1       0.0816265
                  272      1       0.0819277
                  273      1       0.0822289
                  274      1       0.0825301
                  275      1       0.0828313
                  276      1       0.0831325
                  277      1       0.0834337
                  278      1       0.0837349
                  279      1       0.0840361
                  280      1       0.0843373
                  281      1       0.0846386
                  282      1       0.0849398
                  283      1       0.0852410
                  284      1       0.0855422
                  285      1       0.0858434
                  286      1       0.0861446
                  287      1       0.0864458
                  288      1       0.0867470
                  289      1       0.0870482
                  290      1       0.0873494
                  291      1       0.0876506
                  292      1       0.0879518
                  293      1       0.0882530
                  294      1       0.0885542
                  295      1       0.0888554
                  296      1       0.0891566
                  297      1       0.0894578
                  298      1       0.0897590
                  299      1       0.0900602
                  300      1       0.0903614
                  301      1       0.0906627
                  302      1       0.0909639
                  303      1       0.0912651
                  304      1       0.0915663
                  305      1       0.0918675
                  306      1       0.0921687
                  307      1       0.0924699
                  308      1       0.0927711
                  309      1       0.0930723
                  310      1       0.0933735
                  311      1       0.0936747
                  312      1       0.0939759
                  313      1       0.0942771
                  314      1       0.0945783
                  315      1       0.0948795
                  316      1       0.0951807
                  317      1       0.0954819
                  318      1       0.0957831
                  319      1       0.0960843
                  320      1       0.0963855
                  321      1       0.0966867
                  322      1       0.0969880
                  323      1       0.0972892
                  324      1       0.0975904
                  325      1       0.0978916
                  326      1       0.0981928
                  327      1       0.0984940
                  328      1       0.0987952
                  329      1       0.0990964
                  330      1       0.0993976
                  331      1       0.0996988
                  332      1       0.1000000
     Exposed Backing

   2 STEEL SHEET
     Material List
          1  STEEL
     Layer  1
        Thickness   (m):  0.00300
        Density (kg/m3):  7850.00
        STEEL, Mass fraction:    1.00
     Total surface density    23.550 kg/m2
     Reaction products considered from the first  0.50 layers.
     Solid Phase Node, Layer, Coordinates(m):
                    0      1       0.0000000
                    1      1       0.0030000
     Exposed Backing

   3 fan +y
     Normal Velocity (m/s)        -5.000
     AIR Mass Fraction         1.000

   4 fan -y
     Normal Velocity (m/s)        -5.000
     AIR Mass Fraction         1.000

   5 fan +x
     Normal Velocity (m/s)        -5.000
     AIR Mass Fraction         1.000

   6 fan -x
     Normal Velocity (m/s)        -5.000
     AIR Mass Fraction         1.000

   7 OPEN
     Passive Vent to Atmosphere

   8 MIRROR
     Symmetry Plane

   9 INTERPOLATED

  10 PERIODIC

  11 HVAC

  12 MASSLESS TRACER

  13 DROPLET

  14 VEGETATION

  15 EVACUATION_OUTFLOW
     Normal Velocity (m/s)         0.000

  16 MASSLESS TARGET

  17 PERIODIC WIND


 Device Coordinates

     1 Coords:     0.00     0.00     0.50, Make: null, ID: whirl_on, Quantity: TIME


 Slice File Information, Mesh     1

   Sampling Interval (s)             0.015

   1 Nodes:   0  16   8   8   0  64, Quantity: VELOCITY
   2 Nodes:   0  16   8   8   0  64, Quantity: U-VELOCITY
   3 Nodes:   0  16   8   8   0  64, Quantity: V-VELOCITY
   4 Nodes:   0  16   8   8   0  64, Quantity: W-VELOCITY
   5 Nodes:   0  16   8   8   0  64, Quantity: TEMPERATURE
   6 Nodes:   0  16   8   8   0  64, Quantity: VORTICITY Z
   7 Nodes:   0  16   8   8   0  64, Quantity: N-HEPTANE MASS FRACTION
   8 Nodes:   0  16   8   8   0  64, Quantity: HRRPUV
   9 Nodes:   0  16   8   8   0  64, Quantity: INTEGRATED INTENSITY
  10 Nodes:   0  16   0  16   2   2, Quantity: VELOCITY
  11 Nodes:   0  16   0  16   2   2, Quantity: U-VELOCITY
  12 Nodes:   0  16   0  16   2   2, Quantity: V-VELOCITY
  13 Nodes:   0  16   0  16   2   2, Quantity: W-VELOCITY
  14 Nodes:   0  16   0  16   2   2, Quantity: TEMPERATURE
  15 Nodes:   0  16   0  16   2   2, Quantity: VORTICITY Z
  16 Nodes:   0  16   0  16   2   2, Quantity: N-HEPTANE MASS FRACTION
  17 Nodes:   0  16   0  16   2   2, Quantity: HRRPUV
  18 Nodes:   0  16   0  16   8   8, Quantity: VELOCITY
  19 Nodes:   0  16   0  16   8   8, Quantity: U-VELOCITY
  20 Nodes:   0  16   0  16   8   8, Quantity: V-VELOCITY
  21 Nodes:   0  16   0  16   8   8, Quantity: W-VELOCITY
  22 Nodes:   0  16   0  16   8   8, Quantity: TEMPERATURE
  23 Nodes:   0  16   0  16   8   8, Quantity: VORTICITY Z
  24 Nodes:   0  16   0  16   8   8, Quantity: N-HEPTANE MASS FRACTION
  25 Nodes:   0  16   0  16   8   8, Quantity: HRRPUV
  26 Nodes:   0  16   0  16  16  16, Quantity: VELOCITY
  27 Nodes:   0  16   0  16  16  16, Quantity: U-VELOCITY
  28 Nodes:   0  16   0  16  16  16, Quantity: V-VELOCITY
  29 Nodes:   0  16   0  16  16  16, Quantity: W-VELOCITY
  30 Nodes:   0  16   0  16  16  16, Quantity: TEMPERATURE
  31 Nodes:   0  16   0  16  16  16, Quantity: VORTICITY Z
  32 Nodes:   0  16   0  16  16  16, Quantity: N-HEPTANE MASS FRACTION
  33 Nodes:   0  16   0  16  16  16, Quantity: HRRPUV


 Radiation Model Information

   Number of control angles  104
   Time step increment         3
   Angle increment             5
   Theta band N_phi   Solid angle
     1:        4  0.12
     2:       12  0.11
     3:       16  0.13
     4:       20  0.12
     5:       20  0.12
     6:       16  0.13
     7:       12  0.11
     8:        4  0.12
   Using gray gas absorption.
   Mean beam length  0.625 m
 
 

 Run Time Diagnostics

       Time Step       1   January 19, 2018  11:46:06
       Step Size:    0.699E-01 s, Total Time:       0.07 s
       Pressure Iterations:      1
       Maximum Velocity Error:  0.22E-02 on Mesh   1 at (   5  11   1)
       Maximum Pressure Error:  0.17E-05 on Mesh   1 at (   1  14  32)
       ---------------------------------------------------------------
       Max CFL number:  0.11E-01 at (   9,   6,  39)
       Max divergence:  0.11E-04 at (  15,   1,  32)
       Min divergence: -0.11E-04 at (  15,   2,  32)
       Max VN number:   0.79E-02 at (   7,   2,  10)
 
       Time Step       2   January 19, 2018  11:46:06
       Step Size:    0.699E-01 s, Total Time:       0.14 s
       Pressure Iterations:      1
       Maximum Velocity Error:  0.24E-02 on Mesh   1 at (   5  11   1)
       Maximum Pressure Error:  0.39E-05 on Mesh   1 at (  15   8   5)
       ---------------------------------------------------------------
       Max CFL number:  0.11E-01 at (   9,   6,  39)
       Max divergence:  0.15E-04 at (   1,  14,  32)
       Min divergence: -0.65E-02 at (  10,   6,   1)
       Max VN number:   0.79E-02 at (   7,   2,  10)
 
       Time Step       3   January 19, 2018  11:46:06
       Step Size:    0.699E-01 s, Total Time:       0.21 s
       Pressure Iterations:      5
       Maximum Velocity Error:  0.45E-01 on Mesh   1 at (  12   5   1)
       Maximum Pressure Error:  0.21E+03 on Mesh   1 at (   9   9   1)
       ---------------------------------------------------------------
       Max CFL number:  0.11E-01 at (   9,   6,  39)
       Max divergence:  0.22E+01 at (  12,   5,   1)
       Min divergence: -0.11E-04 at (  15,   2,  32)
       Max VN number:   0.78E-02 at (   7,   2,  10)
       No. of Lagrangian Particles:           448
       Total Heat Release Rate:             96.642 kW
 
       Time Step       4   January 19, 2018  11:46:06
       Step Size:    0.699E-01 s, Total Time:       0.28 s
       Pressure Iterations:      1
       Maximum Velocity Error:  0.53E-01 on Mesh   1 at (   5   8   1)
       Maximum Pressure Error:  0.14E+03 on Mesh   1 at (   9   8   1)
       ---------------------------------------------------------------
       Max CFL number:  0.33E+00 at (  12,   5,   1)
       Max divergence:  0.36E+01 at (  12,   5,   1)
       Min divergence: -0.10E-04 at (  15,   2,  32)
       Max VN number:   0.70E-01 at (  12,   5,   1)
       No. of Lagrangian Particles:           896
       Total Heat Release Rate:            156.384 kW
       Radiation Loss to Boundaries:        -0.233 kW
 
       Time Step       5   January 19, 2018  11:46:06
       Step Size:    0.699E-01 s, Total Time:       0.35 s
       Pressure Iterations:      3
       Maximum Velocity Error:  0.40E-01 on Mesh   1 at (   5   8   1)
       Maximum Pressure Error:  0.16E+03 on Mesh   1 at (  12   5   1)
       ---------------------------------------------------------------
       Max CFL number:  0.56E+00 at (  12,   5,   1)
       Max divergence:  0.49E+01 at (  12,   5,   1)
       Min divergence: -0.10E-04 at (  15,   2,  32)
       Max VN number:   0.17E+00 at (  12,   5,   1)
       No. of Lagrangian Particles:          1344
       Total Heat Release Rate:            215.523 kW
       Radiation Loss to Boundaries:        -1.327 kW
 
       Time Step       6   January 19, 2018  11:46:06
       Step Size:    0.699E-01 s, Total Time:       0.42 s
       Pressure Iterations:      4
       Maximum Velocity Error:  0.47E-01 on Mesh   1 at (  12  13   1)
       Maximum Pressure Error:  0.93E+02 on Mesh   1 at (  12   5   1)
       ---------------------------------------------------------------
       Max CFL number:  0.76E+00 at (  12,   5,   1)
       Max divergence:  0.55E+01 at (  12,   5,   1)
       Min divergence: -0.10E-04 at (  15,   2,  32)
       Max VN number:   0.23E+00 at (  12,   5,   1)
       No. of Lagrangian Particles:          1792
       Total Heat Release Rate:            255.505 kW
       Radiation Loss to Boundaries:        -7.409 kW
 
       Time Step       7   January 19, 2018  11:46:06
       Step Size:    0.699E-01 s, Total Time:       0.49 s
       Pressure Iterations:      2
       Maximum Velocity Error:  0.47E-01 on Mesh   1 at (   5   8   1)
       Maximum Pressure Error:  0.36E+03 on Mesh   1 at (   8   8   1)
       ---------------------------------------------------------------
       Max CFL number:  0.82E+00 at (  12,   5,   1)
       Max divergence:  0.84E+01 at (  12,   5,   1)
       Min divergence: -0.47E-01 at (   8,   8,   3)
       Max VN number:   0.28E+00 at (  12,   5,   2)
       No. of Lagrangian Particles:          2240
       Total Heat Release Rate:            415.868 kW
       Radiation Loss to Boundaries:       -33.421 kW
 
       Time Step       8   January 19, 2018  11:46:06
       Step Size:    0.578E-01 s, Total Time:       0.55 s
       Pressure Iterations:      7
       Maximum Velocity Error:  0.54E-01 on Mesh   1 at (  13   5   1)
       Maximum Pressure Error:  0.85E+03 on Mesh   1 at (  12   5   1)
       ---------------------------------------------------------------
       Max CFL number:  0.94E+00 at (  12,   5,   1)
       Max divergence:  0.38E+01 at (   8,   7,   1)
       Min divergence: -0.71E+00 at (  12,   5,   2)
       Max VN number:   0.35E+00 at (  12,   5,   2)
       No. of Lagrangian Particles:          2688
       Total Heat Release Rate:            406.220 kW
       Radiation Loss to Boundaries:      -168.200 kW
 
       Time Step       9   January 19, 2018  11:46:06
       Step Size:    0.578E-01 s, Total Time:       0.60 s
       Pressure Iterations:      5
       Maximum Velocity Error:  0.62E-01 on Mesh   1 at (   5   8   1)
       Maximum Pressure Error:  0.11E+04 on Mesh   1 at (   9   8   1)
       ---------------------------------------------------------------
       Max CFL number:  0.45E+00 at (  12,   5,   2)
       Max divergence:  0.26E+00 at (   9,   8,   2)
       Min divergence: -0.25E+01 at (   9,   8,   1)
       Max VN number:   0.24E+00 at (  12,   5,   2)
       No. of Lagrangian Particles:          3072
       Total Heat Release Rate:            148.586 kW
       Radiation Loss to Boundaries:      -213.745 kW
 
       Time Step      10   January 19, 2018  11:46:06
       Step Size:    0.636E-01 s, Total Time:       0.67 s
       Pressure Iterations:      6
       Maximum Velocity Error:  0.60E-01 on Mesh   1 at (   5   5   1)
       Maximum Pressure Error:  0.75E+03 on Mesh   1 at (   9   8   1)
       ---------------------------------------------------------------
       Max CFL number:  0.44E+00 at (  13,   5,   2)
       Max divergence:  0.55E+00 at (  12,  12,   2)
       Min divergence: -0.12E+01 at (  11,   6,   1)
       Max VN number:   0.20E+00 at (  12,   5,   3)
       No. of Lagrangian Particles:          3456
       Total Heat Release Rate:             18.526 kW
       Radiation Loss to Boundaries:       -21.840 kW
 
       Time Step      20   January 19, 2018  11:46:07
       Step Size:    0.420E-01 s, Total Time:       1.28 s
       Pressure Iterations:      4
       Maximum Velocity Error:  0.41E-01 on Mesh   1 at (  10  13   1)
       Maximum Pressure Error:  0.42E+03 on Mesh   1 at (  12   7   1)
       ---------------------------------------------------------------
       Max CFL number:  0.88E+00 at (  11,   9,   2)
       Max divergence:  0.85E+01 at (   5,  12,   1)
       Min divergence: -0.18E+01 at (  10,   7,   3)
       Max VN number:   0.21E+00 at (  11,   9,   3)
       No. of Lagrangian Particles:          7087
       Total Heat Release Rate:            241.687 kW
       Radiation Loss to Boundaries:       -82.158 kW
 
       Time Step      30   January 19, 2018  11:46:08
       Step Size:    0.225E-01 s, Total Time:       1.58 s
       Pressure Iterations:      1
       Maximum Velocity Error:  0.52E-01 on Mesh   1 at (  13   7   1)
       Maximum Pressure Error:  0.34E+03 on Mesh   1 at (   7   8   7)
       ---------------------------------------------------------------
       Max CFL number:  0.92E+00 at (   8,   7,   4)
       Max divergence:  0.11E+02 at (   9,   8,   5)
       Min divergence: -0.17E+01 at (   7,  11,   1)
       Max VN number:   0.27E+00 at (   9,   8,   5)
       No. of Lagrangian Particles:          8946
       Total Heat Release Rate:            624.557 kW
       Radiation Loss to Boundaries:      -224.878 kW
 
       Time Step      40   January 19, 2018  11:46:09
       Step Size:    0.162E-01 s, Total Time:       1.76 s
       Pressure Iterations:      1
       Maximum Velocity Error:  0.19E-01 on Mesh   1 at (   5   8   1)
       Maximum Pressure Error:  0.22E+03 on Mesh   1 at (   7   8  11)
       ---------------------------------------------------------------
       Max CFL number:  0.98E+00 at (   8,   9,   7)
       Max divergence:  0.16E+02 at (   6,  11,   1)
       Min divergence: -0.29E+01 at (   6,   7,   1)
       Max VN number:   0.17E+00 at (   7,   7,  10)
       No. of Lagrangian Particles:         10098
       Total Heat Release Rate:            679.556 kW
       Radiation Loss to Boundaries:      -247.624 kW
 
       Time Step      50   January 19, 2018  11:46:11
       Step Size:    0.139E-01 s, Total Time:       1.90 s
       Pressure Iterations:      2
       Maximum Velocity Error:  0.48E-01 on Mesh   1 at (  13   6   1)
       Maximum Pressure Error:  0.60E+03 on Mesh   1 at (  12   6   1)
       ---------------------------------------------------------------
       Max CFL number:  0.86E+00 at (   8,  10,   8)
       Max divergence:  0.21E+02 at (  11,   6,   1)
       Min divergence: -0.29E+01 at (  10,  12,   1)
       Max VN number:   0.19E+00 at (  11,  11,   1)
       No. of Lagrangian Particles:         10994
       Total Heat Release Rate:            828.041 kW
       Radiation Loss to Boundaries:      -278.990 kW
 
       Time Step      60   January 19, 2018  11:46:12
       Step Size:    0.139E-01 s, Total Time:       2.04 s
       Pressure Iterations:      1
       Maximum Velocity Error:  0.47E-01 on Mesh   1 at (  13   6   1)
       Maximum Pressure Error:  0.56E+03 on Mesh   1 at (   8  11  10)
       ---------------------------------------------------------------
       Max CFL number:  0.99E+00 at (   8,  11,  11)
       Max divergence:  0.16E+02 at (   6,  11,   1)
       Min divergence: -0.27E+01 at (   8,   9,  13)
       Max VN number:   0.22E+00 at (  10,   8,  13)
       No. of Lagrangian Particles:         11890
       Total Heat Release Rate:           1195.164 kW
       Radiation Loss to Boundaries:      -491.280 kW
 
       Time Step      70   January 19, 2018  11:46:16
       Step Size:    0.107E-01 s, Total Time:       2.15 s
       Pressure Iterations:      1
       Maximum Velocity Error:  0.30E-01 on Mesh   1 at (   5  13   1)
       Maximum Pressure Error:  0.64E+03 on Mesh   1 at (  10   7  18)
       ---------------------------------------------------------------
       Max CFL number:  0.94E+00 at (   8,   7,  11)
       Max divergence:  0.13E+02 at (   6,  11,   1)
       Min divergence: -0.41E+01 at (   7,  10,  14)
       Max VN number:   0.21E+00 at (  10,   7,  17)
       No. of Lagrangian Particles:         12658
       Total Heat Release Rate:           1358.232 kW
       Radiation Loss to Boundaries:      -507.549 kW
 
       Time Step      80   January 19, 2018  11:46:18
       Step Size:    0.893E-02 s, Total Time:       2.25 s
       Pressure Iterations:      1
       Maximum Velocity Error:  0.50E-01 on Mesh   1 at (  12   5   1)
       Maximum Pressure Error:  0.84E+03 on Mesh   1 at (  10   9  19)
       ---------------------------------------------------------------
       Max CFL number:  0.95E+00 at (   7,   8,  15)
       Max divergence:  0.16E+02 at (  12,  12,   1)
       Min divergence: -0.26E+01 at (   8,   6,  19)
       Max VN number:   0.23E+00 at (  10,   9,  18)
       No. of Lagrangian Particles:         13234
       Total Heat Release Rate:           1731.220 kW
       Radiation Loss to Boundaries:      -687.922 kW
 
       Time Step      90   January 19, 2018  11:46:19
       Step Size:    0.873E-02 s, Total Time:       2.33 s
       Pressure Iterations:      1
       Maximum Velocity Error:  0.29E-01 on Mesh   1 at (   5   6   1)
       Maximum Pressure Error:  0.41E+03 on Mesh   1 at (  10   9  22)
       ---------------------------------------------------------------
       Max CFL number:  0.99E+00 at (   9,   9,  20)
       Max divergence:  0.21E+02 at (  12,   5,   1)
       Min divergence: -0.32E+01 at (   8,   8,  20)
       Max VN number:   0.21E+00 at (   8,   8,  21)
       No. of Lagrangian Particles:         13810
       Total Heat Release Rate:           1452.986 kW
       Radiation Loss to Boundaries:      -554.813 kW
 
       Time Step     100   January 19, 2018  11:46:20
       Step Size:    0.839E-02 s, Total Time:       2.41 s
       Pressure Iterations:      2
       Maximum Velocity Error:  0.38E-01 on Mesh   1 at (   5   9   1)
       Maximum Pressure Error:  0.91E+03 on Mesh   1 at (   6  10   1)
       ---------------------------------------------------------------
       Max CFL number:  0.92E+00 at (   9,   9,  19)
       Max divergence:  0.19E+02 at (  12,   5,   1)
       Min divergence: -0.28E+01 at (   6,  10,   1)
       Max VN number:   0.20E+00 at (   7,   8,  23)
       No. of Lagrangian Particles:         14226
       Total Heat Release Rate:           1243.250 kW
       Radiation Loss to Boundaries:      -482.298 kW
 
       Time Step     200   January 19, 2018  11:46:34
       Step Size:    0.799E-02 s, Total Time:       3.21 s
       Pressure Iterations:      1
       Maximum Velocity Error:  0.54E-01 on Mesh   1 at (   5   8   1)
       Maximum Pressure Error:  0.11E+04 on Mesh   1 at (   8   7  32)
       ---------------------------------------------------------------
       Max CFL number:  0.99E+00 at (   8,   8,  44)
       Max divergence:  0.19E+02 at (   9,   8,  32)
       Min divergence: -0.48E+01 at (   6,  11,   1)
       Max VN number:   0.29E+00 at (   7,   8,  30)
       No. of Lagrangian Particles:         16704
       Total Heat Release Rate:           3793.429 kW
       Radiation Loss to Boundaries:     -1474.103 kW
 
       Time Step     300   January 19, 2018  11:46:50
       Step Size:    0.769E-02 s, Total Time:       3.89 s
       Pressure Iterations:      4
       Maximum Velocity Error:  0.41E-01 on Mesh   1 at (  11   5   1)
       Maximum Pressure Error:  0.45E+03 on Mesh   1 at (   6  11   1)
       ---------------------------------------------------------------
       Max CFL number:  0.91E+00 at (  10,   7,  49)
       Max divergence:  0.24E+02 at (  11,  12,   1)
       Min divergence: -0.52E+01 at (  11,  11,   1)
       Max VN number:   0.23E+00 at (  15,   8,  63)
       No. of Lagrangian Particles:         12055
       Total Heat Release Rate:           2488.858 kW
       Radiation Loss to Boundaries:      -952.033 kW
 
       Time Step     400   January 19, 2018  11:47:02
       Step Size:    0.697E-02 s, Total Time:       4.58 s
       Pressure Iterations:      7
       Maximum Velocity Error:  0.54E-01 on Mesh   1 at (  12  13   1)
       Maximum Pressure Error:  0.89E+03 on Mesh   1 at (  12  12   1)
       ---------------------------------------------------------------
       Max CFL number:  0.90E+00 at (  10,   9,  43)
       Max divergence:  0.37E+02 at (  11,  12,   1)
       Min divergence: -0.47E+01 at (   7,   6,   2)
       Max VN number:   0.23E+00 at (   6,   9,  49)
       No. of Lagrangian Particles:         11372
       Total Heat Release Rate:           4557.469 kW
       Radiation Loss to Boundaries:     -1790.921 kW
 
       Time Step     500   January 19, 2018  11:47:15
       Step Size:    0.736E-02 s, Total Time:       5.28 s
       Pressure Iterations:      5
       Maximum Velocity Error:  0.54E-01 on Mesh   1 at (   9  13   1)
       Maximum Pressure Error:  0.99E+03 on Mesh   1 at (   9  12   1)
       ---------------------------------------------------------------
       Max CFL number:  0.88E+00 at (   3,   9,  61)
       Max divergence:  0.28E+02 at (   5,   7,   2)
       Min divergence: -0.55E+01 at (  11,  10,   1)
       Max VN number:   0.23E+00 at (   8,   5,  22)
       No. of Lagrangian Particles:          9962
       Total Heat Release Rate:           3888.976 kW
       Radiation Loss to Boundaries:     -1486.264 kW
 
       Time Step     600   January 19, 2018  11:47:30
       Step Size:    0.555E-02 s, Total Time:       5.91 s
       Pressure Iterations:      2
       Maximum Velocity Error:  0.11E-01 on Mesh   1 at (   8   5   1)
       Maximum Pressure Error:  0.12E+04 on Mesh   1 at (   6   1  17)
       ---------------------------------------------------------------
       Max CFL number:  0.89E+00 at (   7,   8,  48)
       Max divergence:  0.27E+02 at (   6,   1,  20)
       Min divergence: -0.57E+01 at (   7,   7,  21)
       Max VN number:   0.19E+00 at (   8,   6,  42)
       No. of Lagrangian Particles:         11096
       Total Heat Release Rate:           4252.861 kW
       Radiation Loss to Boundaries:     -1661.391 kW
 
       Time Step     700   January 19, 2018  11:47:41
       Step Size:    0.718E-02 s, Total Time:       6.57 s
       Pressure Iterations:      5
       Maximum Velocity Error:  0.52E-01 on Mesh   1 at (   5  13   1)
       Maximum Pressure Error:  0.13E+04 on Mesh   1 at (   7   1  24)
       ---------------------------------------------------------------
       Max CFL number:  0.85E+00 at (  10,   7,  20)
       Max divergence:  0.14E+02 at (  10,   5,   2)
       Min divergence: -0.45E+01 at (   9,   2,  23)
       Max VN number:   0.24E+00 at (   2,   7,  34)
       No. of Lagrangian Particles:          9684
       Total Heat Release Rate:           2662.192 kW
       Radiation Loss to Boundaries:     -1046.433 kW
 
       Time Step     800   January 19, 2018  11:47:54
       Step Size:    0.841E-02 s, Total Time:       7.27 s
       Pressure Iterations:      6
       Maximum Velocity Error:  0.62E-01 on Mesh   1 at (  12  13   1)
       Maximum Pressure Error:  0.86E+03 on Mesh   1 at (  11  12   1)
       ---------------------------------------------------------------
       Max CFL number:  0.97E+00 at (  10,   5,  18)
       Max divergence:  0.40E+02 at (   8,  12,   1)
       Min divergence: -0.94E+01 at (   7,  11,   1)
       Max VN number:   0.26E+00 at (   7,  12,  30)
       No. of Lagrangian Particles:         11970
       Total Heat Release Rate:           2726.177 kW
       Radiation Loss to Boundaries:     -1055.849 kW
 
       Time Step     900   January 19, 2018  11:48:06
       Step Size:    0.794E-02 s, Total Time:       8.04 s
       Pressure Iterations:      4
       Maximum Velocity Error:  0.58E-01 on Mesh   1 at (   9  13   1)
       Maximum Pressure Error:  0.12E+04 on Mesh   1 at (   9   2  30)
       ---------------------------------------------------------------
       Max CFL number:  0.98E+00 at (   7,   8,  39)
       Max divergence:  0.19E+02 at (   7,   9,  21)
       Min divergence: -0.50E+01 at (  10,   9,  22)
       Max VN number:   0.26E+00 at (   2,   7,  53)
       No. of Lagrangian Particles:         15010
       Total Heat Release Rate:           5871.322 kW
       Radiation Loss to Boundaries:     -2367.462 kW
 
       Time Step    1000   January 19, 2018  11:48:22
       Step Size:    0.729E-02 s, Total Time:       8.71 s
       Pressure Iterations:      5
       Maximum Velocity Error:  0.55E-01 on Mesh   1 at (   5   8   1)
       Maximum Pressure Error:  0.13E+04 on Mesh   1 at (   5   8   1)
       ---------------------------------------------------------------
       Max CFL number:  0.84E+00 at (   7,   4,  21)
       Max divergence:  0.14E+02 at (   6,   5,   3)
       Min divergence: -0.57E+01 at (  13,   4,  31)
       Max VN number:   0.23E+00 at (   7,   4,  21)
       No. of Lagrangian Particles:         13532
       Total Heat Release Rate:           2816.447 kW
       Radiation Loss to Boundaries:     -1096.690 kW
 
       Time Step    1100   January 19, 2018  11:48:33
       Step Size:    0.639E-02 s, Total Time:       9.40 s
       Pressure Iterations:      2
       Maximum Velocity Error:  0.35E-01 on Mesh   1 at (   5   9   1)
       Maximum Pressure Error:  0.96E+03 on Mesh   1 at (   3   1  55)
       ---------------------------------------------------------------
       Max CFL number:  0.87E+00 at (   8,   1,  44)
       Max divergence:  0.21E+02 at (   5,   9,   1)
       Min divergence: -0.59E+01 at (   6,   9,   1)
       Max VN number:   0.22E+00 at (   9,   2,  51)
       No. of Lagrangian Particles:         13929
       Total Heat Release Rate:           3043.872 kW
       Radiation Loss to Boundaries:     -1149.030 kW
 
       Time Step    1200   January 19, 2018  11:48:43
       Step Size:    0.749E-02 s, Total Time:      10.06 s
       Pressure Iterations:      5
       Maximum Velocity Error:  0.27E+00 on Mesh   1 at (  16   9  12)
       Maximum Pressure Error:  0.45E+04 on Mesh   1 at (   5   8   2)
       ---------------------------------------------------------------
       Max CFL number:  0.82E+00 at (   7,   4,  54)
       Max divergence:  0.14E+02 at (   6,  12,   2)
       Min divergence: -0.32E+01 at (  13,  11,   7)
       Max VN number:   0.31E+00 at (   7,   6,  51)
       No. of Lagrangian Particles:         15031
       Total Heat Release Rate:           3428.410 kW
       Radiation Loss to Boundaries:     -1336.480 kW
 
       Time Step    1300   January 19, 2018  11:48:56
       Step Size:    0.246E-02 s, Total Time:      10.41 s
       Pressure Iterations:      7
       Maximum Velocity Error:  0.42E-01 on Mesh   1 at (  12   5   1)
       Maximum Pressure Error:  0.12E+04 on Mesh   1 at (  12   1  54)
       ---------------------------------------------------------------
       Max CFL number:  0.97E+00 at (  10,   8,  35)
       Max divergence:  0.25E+02 at (   8,   8,  32)
       Min divergence: -0.79E+01 at (  10,   7,  32)
       Max VN number:   0.20E+00 at (  10,  12,  50)
       No. of Lagrangian Particles:         14787
       Total Heat Release Rate:           5106.399 kW
       Radiation Loss to Boundaries:     -1919.289 kW
 
       Time Step    1400   January 19, 2018  11:49:09
       Step Size:    0.154E-02 s, Total Time:      10.60 s
       Pressure Iterations:      5
       Maximum Velocity Error:  0.30E-01 on Mesh   1 at (  12  13   1)
       Maximum Pressure Error:  0.11E+04 on Mesh   1 at (   5   5   1)
       ---------------------------------------------------------------
       Max CFL number:  0.96E+00 at (   8,   9,  32)
       Max divergence:  0.87E+02 at (   5,   5,   1)
       Min divergence: -0.14E+02 at (   9,   9,  39)
       Max VN number:   0.14E+00 at (   7,  10,  34)
       No. of Lagrangian Particles:         11620
       Total Heat Release Rate:           7357.973 kW
       Radiation Loss to Boundaries:     -2288.934 kW
 
       Time Step    1500   January 19, 2018  11:49:24
       Step Size:    0.109E-02 s, Total Time:      10.73 s
       Pressure Iterations:     10
       Maximum Velocity Error:  0.96E-01 on Mesh   1 at (  11  13   1)
       Maximum Pressure Error:  0.43E+04 on Mesh   1 at (  12   5   1)
       ---------------------------------------------------------------
       Max CFL number:  0.85E+00 at (   9,   7,  33)
       Max divergence:  0.14E+03 at (  12,  12,   1)
       Min divergence: -0.31E+02 at (  10,  12,   1)
       Max VN number:   0.14E+00 at (  12,   5,   1)
       No. of Lagrangian Particles:         10640
       Total Heat Release Rate:          18824.245 kW
       Radiation Loss to Boundaries:     -6047.124 kW
 
       Time Step    1600   January 19, 2018  11:49:39
       Step Size:    0.846E-03 s, Total Time:      10.83 s
       Pressure Iterations:     10
       Maximum Velocity Error:  0.42E-01 on Mesh   1 at (   7   5   1)
       Maximum Pressure Error:  0.71E+04 on Mesh   1 at (  12  12   1)
       ---------------------------------------------------------------
       Max CFL number:  0.82E+00 at (   7,   9,  39)
       Max divergence:  0.12E+03 at (   5,   5,   1)
       Min divergence: -0.38E+02 at (   7,   5,   1)
       Max VN number:   0.15E+00 at (   6,   9,  41)
       No. of Lagrangian Particles:          7583
       Total Heat Release Rate:          32219.936 kW
       Radiation Loss to Boundaries:    -12250.816 kW
 
       Time Step    1700   January 19, 2018  11:49:50
       Step Size:    0.931E-03 s, Total Time:      10.92 s
       Pressure Iterations:     10
       Maximum Velocity Error:  0.22E+00 on Mesh   1 at (  13   6   1)
       Maximum Pressure Error:  0.14E+05 on Mesh   1 at (   5   5   1)
       ---------------------------------------------------------------
       Max CFL number:  0.89E+00 at (   8,   9,  33)
       Max divergence:  0.12E+03 at (   5,  10,   3)
       Min divergence: -0.58E+02 at (   9,  11,   1)
       Max VN number:   0.14E+00 at (   9,  10,  49)
       No. of Lagrangian Particles:          1831
       Total Heat Release Rate:          13560.328 kW
       Radiation Loss to Boundaries:     -4812.672 kW
 
       Time Step    1800   January 19, 2018  11:50:01
       Step Size:    0.102E-02 s, Total Time:      11.02 s
       Pressure Iterations:     10
       Maximum Velocity Error:  0.34E+00 on Mesh   1 at (  12  13   1)
       Maximum Pressure Error:  0.11E+05 on Mesh   1 at (  12  12   1)
       ---------------------------------------------------------------
       Max CFL number:  0.95E+00 at (   9,   9,  47)
       Max divergence:  0.12E+03 at (   5,   6,   2)
       Min divergence: -0.36E+02 at (  10,   8,   8)
       Max VN number:   0.18E+00 at (  10,  10,  45)
       No. of Lagrangian Particles:          1957
       Total Heat Release Rate:          14970.337 kW
       Radiation Loss to Boundaries:     -4999.955 kW
 
       Time Step    1900   January 19, 2018  11:50:12
       Step Size:    0.113E-02 s, Total Time:      11.13 s
       Pressure Iterations:      8
       Maximum Velocity Error:  0.22E-01 on Mesh   1 at (  11  13   1)
       Maximum Pressure Error:  0.25E+04 on Mesh   1 at (  12  12   1)
       ---------------------------------------------------------------
       Max CFL number:  0.86E+00 at (   7,   9,  36)
       Max divergence:  0.95E+02 at (  11,   5,   2)
       Min divergence: -0.43E+02 at (   7,   6,   6)
       Max VN number:   0.17E+00 at (   6,  12,  63)
       No. of Lagrangian Particles:          2085
       Total Heat Release Rate:           9388.941 kW
       Radiation Loss to Boundaries:     -2645.636 kW
 
       Time Step    2000   January 19, 2018  11:50:25
       Step Size:    0.907E-03 s, Total Time:      11.23 s
       Pressure Iterations:      9
       Maximum Velocity Error:  0.15E-01 on Mesh   1 at (   1  15   9)
       Maximum Pressure Error:  0.25E+04 on Mesh   1 at (  11   8   3)
       ---------------------------------------------------------------
       Max CFL number:  0.85E+00 at (   8,   9,  26)
       Max divergence:  0.14E+03 at (  12,  12,   2)
       Min divergence: -0.36E+02 at (   8,  10,  10)
       Max VN number:   0.25E+00 at (   9,   8,  41)
       No. of Lagrangian Particles:          2403
       Total Heat Release Rate:          15545.426 kW
       Radiation Loss to Boundaries:     -4472.853 kW
 
       Time Step    2100   January 19, 2018  11:50:36
       Step Size:    0.886E-03 s, Total Time:      11.31 s
       Pressure Iterations:     10
       Maximum Velocity Error:  0.60E-01 on Mesh   1 at (  11   5   1)
       Maximum Pressure Error:  0.53E+04 on Mesh   1 at (  11   5   1)
       ---------------------------------------------------------------
       Max CFL number:  0.95E+00 at (   7,   9,  36)
       Max divergence:  0.13E+03 at (  10,   5,   2)
       Min divergence: -0.35E+02 at (   7,   9,  28)
       Max VN number:   0.19E+00 at (   6,  11,  29)
       No. of Lagrangian Particles:          2517
       Total Heat Release Rate:          16769.879 kW
       Radiation Loss to Boundaries:     -4519.715 kW
 
       Time Step    2200   January 19, 2018  11:50:47
       Step Size:    0.783E-03 s, Total Time:      11.40 s
       Pressure Iterations:     10
       Maximum Velocity Error:  0.16E+00 on Mesh   1 at (  12   5   1)
       Maximum Pressure Error:  0.12E+05 on Mesh   1 at (   6  11   2)
       ---------------------------------------------------------------
       Max CFL number:  0.93E+00 at (   9,   9,  35)
       Max divergence:  0.13E+03 at (  11,   7,   3)
       Min divergence: -0.34E+02 at (   7,   7,   6)
       Max VN number:   0.15E+00 at (   9,   9,  35)
       No. of Lagrangian Particles:          2558
       Total Heat Release Rate:          16415.368 kW
       Radiation Loss to Boundaries:     -4352.859 kW
 
       Time Step    2300   January 19, 2018  11:51:01
       Step Size:    0.948E-03 s, Total Time:      11.49 s
       Pressure Iterations:      7
       Maximum Velocity Error:  0.31E-01 on Mesh   1 at (  16   2  10)
       Maximum Pressure Error:  0.24E+05 on Mesh   1 at (   1   8  58)
       ---------------------------------------------------------------
       Max CFL number:  0.94E+00 at (   8,   9,  31)
       Max divergence:  0.11E+03 at (   7,  12,   2)
       Min divergence: -0.36E+02 at (   9,   8,   8)
       Max VN number:   0.17E+00 at (   7,   9,  37)
       No. of Lagrangian Particles:          2601
       Total Heat Release Rate:          11966.344 kW
       Radiation Loss to Boundaries:     -3417.365 kW
 
       Time Step    2400   January 19, 2018  11:51:15
       Step Size:    0.844E-03 s, Total Time:      11.58 s
       Pressure Iterations:      8
       Maximum Velocity Error:  0.99E-02 on Mesh   1 at (   1   2   1)
       Maximum Pressure Error:  0.13E+05 on Mesh   1 at (  16  13  54)
       ---------------------------------------------------------------
       Max CFL number:  0.92E+00 at (   9,  10,  42)
       Max divergence:  0.96E+02 at (   5,  10,   3)
       Min divergence: -0.31E+02 at (   9,  10,   7)
       Max VN number:   0.18E+00 at (   7,  10,  42)
       No. of Lagrangian Particles:          2550
       Total Heat Release Rate:          16630.121 kW
       Radiation Loss to Boundaries:     -4569.884 kW
 
       Time Step    2500   January 19, 2018  11:51:29
       Step Size:    0.734E-03 s, Total Time:      11.66 s
       Pressure Iterations:     10
       Maximum Velocity Error:  0.46E-01 on Mesh   1 at (   5   9   1)
       Maximum Pressure Error:  0.58E+04 on Mesh   1 at (  11   7   2)
       ---------------------------------------------------------------
       Max CFL number:  0.81E+00 at (   9,   8,  39)
       Max divergence:  0.12E+03 at (   6,  11,   2)
       Min divergence: -0.40E+02 at (  10,   8,  26)
       Max VN number:   0.16E+00 at (  13,   7,  63)
       No. of Lagrangian Particles:          2583
       Total Heat Release Rate:          19206.514 kW
       Radiation Loss to Boundaries:     -5212.779 kW
 
       Time Step    2600   January 19, 2018  11:51:44
       Step Size:    0.726E-03 s, Total Time:      11.73 s
       Pressure Iterations:     10
       Maximum Velocity Error:  0.15E+00 on Mesh   1 at (  13   9   1)
       Maximum Pressure Error:  0.13E+05 on Mesh   1 at (  13   9   1)
       ---------------------------------------------------------------
       Max CFL number:  0.90E+00 at (  10,   7,  35)
       Max divergence:  0.12E+03 at (   5,   6,   2)
       Min divergence: -0.32E+02 at (   8,  11,   9)
       Max VN number:   0.18E+00 at (  10,   9,  38)
       No. of Lagrangian Particles:          2594
       Total Heat Release Rate:          22507.130 kW
       Radiation Loss to Boundaries:     -7226.778 kW
 
       Time Step    2700   January 19, 2018  11:51:56
       Step Size:    0.878E-03 s, Total Time:      11.81 s
       Pressure Iterations:      6
       Maximum Velocity Error:  0.30E-01 on Mesh   1 at (   2   1  22)
       Maximum Pressure Error:  0.54E+04 on Mesh   1 at (   5  10   2)
       ---------------------------------------------------------------
       Max CFL number:  0.10E+01 at (   8,  10,  32)
       Max divergence:  0.11E+03 at (   7,  11,   6)
       Min divergence: -0.33E+02 at (   7,   8,  10)
       Max VN number:   0.17E+00 at (   7,   9,  36)
       No. of Lagrangian Particles:          2500
       Total Heat Release Rate:          15635.501 kW
       Radiation Loss to Boundaries:     -4303.883 kW
 
       Time Step    2800   January 19, 2018  11:52:09
       Step Size:    0.762E-03 s, Total Time:      11.89 s
       Pressure Iterations:     10
       Maximum Velocity Error:  0.19E-01 on Mesh   1 at (   9   5   1)
       Maximum Pressure Error:  0.51E+04 on Mesh   1 at (  16  11  58)
       ---------------------------------------------------------------
       Max CFL number:  0.95E+00 at (   7,   9,  34)
       Max divergence:  0.12E+03 at (   8,   7,  10)
       Min divergence: -0.48E+02 at (   5,   8,  42)
       Max VN number:   0.15E+00 at (   8,  11,  39)
       No. of Lagrangian Particles:          2596
       Total Heat Release Rate:          21428.360 kW
       Radiation Loss to Boundaries:     -6445.854 kW
 
       Time Step    2900   January 19, 2018  11:52:21
       Step Size:    0.746E-03 s, Total Time:      11.96 s
       Pressure Iterations:     10
       Maximum Velocity Error:  0.14E+00 on Mesh   1 at (   5   5   1)
       Maximum Pressure Error:  0.86E+04 on Mesh   1 at (   5   5   1)
       ---------------------------------------------------------------
       Max CFL number:  0.78E+00 at (   7,   9,  50)
       Max divergence:  0.12E+03 at (   5,   5,   1)
       Min divergence: -0.40E+02 at (   7,  10,   6)
       Max VN number:   0.14E+00 at (   8,   6,  51)
       No. of Lagrangian Particles:          2609
       Total Heat Release Rate:          15322.728 kW
       Radiation Loss to Boundaries:     -3896.353 kW
 
       Time Step    3000   January 19, 2018  11:52:33
       Step Size:    0.737E-03 s, Total Time:      12.04 s
       Pressure Iterations:     10
       Maximum Velocity Error:  0.11E+00 on Mesh   1 at (  13   5   1)
       Maximum Pressure Error:  0.17E+05 on Mesh   1 at (  16   5  63)
       ---------------------------------------------------------------
       Max CFL number:  0.84E+00 at (   9,  10,  37)
       Max divergence:  0.16E+03 at (   5,  12,   2)
       Min divergence: -0.50E+02 at (  10,   9,  12)
       Max VN number:   0.16E+00 at (   7,   8,  36)
       No. of Lagrangian Particles:          2650
       Total Heat Release Rate:          18056.358 kW
       Radiation Loss to Boundaries:     -5388.589 kW
 
       Time Step    3100   January 19, 2018  11:52:47
       Step Size:    0.811E-03 s, Total Time:      12.12 s
       Pressure Iterations:     10
       Maximum Velocity Error:  0.74E-01 on Mesh   1 at (   5  12   1)
       Maximum Pressure Error:  0.86E+04 on Mesh   1 at (   7   7   4)
       ---------------------------------------------------------------
       Max CFL number:  0.95E+00 at (   8,   7,  38)
       Max divergence:  0.20E+03 at (  12,   8,   2)
       Min divergence: -0.39E+02 at (   7,   7,  15)
       Max VN number:   0.16E+00 at (   9,   9,  38)
       No. of Lagrangian Particles:          2740
       Total Heat Release Rate:          15752.731 kW
       Radiation Loss to Boundaries:     -4641.194 kW
 
       Time Step    3200   January 19, 2018  11:53:00
       Step Size:    0.715E-03 s, Total Time:      12.19 s
       Pressure Iterations:     10
       Maximum Velocity Error:  0.27E-01 on Mesh   1 at (  12  13   1)
       Maximum Pressure Error:  0.15E+05 on Mesh   1 at (  16  11  45)
       ---------------------------------------------------------------
       Max CFL number:  0.92E+00 at (   9,   9,  41)
       Max divergence:  0.14E+03 at (   5,   7,   2)
       Min divergence: -0.49E+02 at (   6,   9,  11)
       Max VN number:   0.17E+00 at (  13,   9,  49)
       No. of Lagrangian Particles:          2782
       Total Heat Release Rate:          20980.098 kW
       Radiation Loss to Boundaries:     -5442.378 kW
 
       Time Step    3300   January 19, 2018  11:53:11
       Step Size:    0.771E-03 s, Total Time:      12.27 s
       Pressure Iterations:     10
       Maximum Velocity Error:  0.26E+00 on Mesh   1 at (  13   5   1)
       Maximum Pressure Error:  0.13E+05 on Mesh   1 at (   5  12   1)
       ---------------------------------------------------------------
       Max CFL number:  0.85E+00 at (  10,   9,  34)
       Max divergence:  0.21E+03 at (  12,   5,   2)
       Min divergence: -0.45E+02 at (   8,  10,  11)
       Max VN number:   0.17E+00 at (   6,  12,  61)
       No. of Lagrangian Particles:          2732
       Total Heat Release Rate:          17586.754 kW
       Radiation Loss to Boundaries:     -5151.345 kW
 
       Time Step    3400   January 19, 2018  11:53:23
       Step Size:    0.819E-03 s, Total Time:      12.35 s
       Pressure Iterations:      6
       Maximum Velocity Error:  0.10E-01 on Mesh   1 at (   2   1   1)
       Maximum Pressure Error:  0.12E+04 on Mesh   1 at (   1   7  57)
       ---------------------------------------------------------------
       Max CFL number:  0.94E+00 at (   8,   9,  33)
       Max divergence:  0.11E+03 at (   5,   7,   3)
       Min divergence: -0.66E+02 at (   7,   7,   5)
       Max VN number:   0.16E+00 at (  13,   4,  57)
       No. of Lagrangian Particles:          2583
       Total Heat Release Rate:          17146.558 kW
       Radiation Loss to Boundaries:     -4438.880 kW
 
       Time Step    3500   January 19, 2018  11:53:35
       Step Size:    0.722E-03 s, Total Time:      12.42 s
       Pressure Iterations:     10
       Maximum Velocity Error:  0.12E-01 on Mesh   1 at (   1  15  20)
       Maximum Pressure Error:  0.36E+04 on Mesh   1 at (  16   6  63)
       ---------------------------------------------------------------
       Max CFL number:  0.88E+00 at (   8,   8,  37)
       Max divergence:  0.12E+03 at (   9,   6,   6)
       Min divergence: -0.45E+02 at (   6,   8,  16)
       Max VN number:   0.17E+00 at (   7,  10,  34)
       No. of Lagrangian Particles:          2688
       Total Heat Release Rate:          22336.017 kW
       Radiation Loss to Boundaries:     -5788.394 kW
 
       Time Step    3600   January 19, 2018  11:53:47
       Step Size:    0.714E-03 s, Total Time:      12.49 s
       Pressure Iterations:     10
       Maximum Velocity Error:  0.27E-01 on Mesh   1 at (  16  15   1)
       Maximum Pressure Error:  0.81E+04 on Mesh   1 at (   5   6   2)
       ---------------------------------------------------------------
       Max CFL number:  0.83E+00 at (   9,   8,  34)
       Max divergence:  0.99E+02 at (   7,   5,   6)
       Min divergence: -0.53E+02 at (   8,  10,  15)
       Max VN number:   0.18E+00 at (  10,   9,  44)
       No. of Lagrangian Particles:          2612
       Total Heat Release Rate:          15527.967 kW
       Radiation Loss to Boundaries:     -4887.723 kW
 
       Time Step    3700   January 19, 2018  11:54:03
       Step Size:    0.785E-03 s, Total Time:      12.57 s
       Pressure Iterations:     10
       Maximum Velocity Error:  0.39E+00 on Mesh   1 at (  12  13   1)
       Maximum Pressure Error:  0.21E+05 on Mesh   1 at (  12  12   1)
       ---------------------------------------------------------------
       Max CFL number:  0.84E+00 at (   9,   8,  35)
       Max divergence:  0.11E+03 at (   7,  11,   3)
       Min divergence: -0.42E+02 at (   8,   7,  11)
       Max VN number:   0.18E+00 at (  12,   5,  53)
       No. of Lagrangian Particles:          2506
       Total Heat Release Rate:          15903.487 kW
       Radiation Loss to Boundaries:     -4587.352 kW
 
       Time Step    3800   January 19, 2018  11:54:15
       Step Size:    0.785E-03 s, Total Time:      12.64 s
       Pressure Iterations:     10
       Maximum Velocity Error:  0.45E-01 on Mesh   1 at (  10  13   1)
       Maximum Pressure Error:  0.74E+04 on Mesh   1 at (   7   5   2)
       ---------------------------------------------------------------
       Max CFL number:  0.95E+00 at (   9,   8,  35)
       Max divergence:  0.12E+03 at (  12,   9,   2)
       Min divergence: -0.39E+02 at (   7,  10,   7)
       Max VN number:   0.19E+00 at (  13,   4,  54)
       No. of Lagrangian Particles:          2703
       Total Heat Release Rate:          20294.556 kW
       Radiation Loss to Boundaries:     -4690.561 kW
 
       Time Step    3900   January 19, 2018  11:54:28
       Step Size:    0.684E-03 s, Total Time:      12.71 s
       Pressure Iterations:      7
       Maximum Velocity Error:  0.65E-01 on Mesh   1 at (  15  16   1)
       Maximum Pressure Error:  0.16E+05 on Mesh   1 at (  11   6   2)
       ---------------------------------------------------------------
       Max CFL number:  0.84E+00 at (   8,  10,  45)
       Max divergence:  0.12E+03 at (  11,   7,   5)
       Min divergence: -0.45E+02 at (   7,  10,   9)
       Max VN number:   0.17E+00 at (  15,  11,  51)
       No. of Lagrangian Particles:          2679
       Total Heat Release Rate:          20310.015 kW
       Radiation Loss to Boundaries:     -6277.473 kW
 
       Time Step    4000   January 19, 2018  11:54:41
       Step Size:    0.741E-03 s, Total Time:      12.79 s
       Pressure Iterations:     10
       Maximum Velocity Error:  0.35E-01 on Mesh   1 at (   5   9   1)
       Maximum Pressure Error:  0.76E+04 on Mesh   1 at (   6   9   3)
       ---------------------------------------------------------------
       Max CFL number:  0.84E+00 at (   9,   8,  47)
       Max divergence:  0.12E+03 at (   5,  12,   2)
       Min divergence: -0.38E+02 at (   6,   9,   8)
       Max VN number:   0.15E+00 at (   2,   7,  52)
       No. of Lagrangian Particles:          2649
       Total Heat Release Rate:          17528.141 kW
       Radiation Loss to Boundaries:     -4201.891 kW
 
       Time Step    4100   January 19, 2018  11:54:54
       Step Size:    0.725E-03 s, Total Time:      12.86 s
       Pressure Iterations:     10
       Maximum Velocity Error:  0.12E-01 on Mesh   1 at (   2  16  17)
       Maximum Pressure Error:  0.64E+04 on Mesh   1 at (   6  16  47)
       ---------------------------------------------------------------
       Max CFL number:  0.88E+00 at (   8,   8,  36)
       Max divergence:  0.10E+03 at (  12,   6,   2)
       Min divergence: -0.40E+02 at (   9,  11,  12)
       Max VN number:   0.20E+00 at (  10,   8,  44)
       No. of Lagrangian Particles:          2693
       Total Heat Release Rate:          22048.768 kW
       Radiation Loss to Boundaries:     -5982.348 kW
 
       Time Step    4200   January 19, 2018  11:55:08
       Step Size:    0.776E-03 s, Total Time:      12.93 s
       Pressure Iterations:     10
       Maximum Velocity Error:  0.18E+00 on Mesh   1 at (  13  12   1)
       Maximum Pressure Error:  0.42E+05 on Mesh   1 at (  14   1  61)
       ---------------------------------------------------------------
       Max CFL number:  0.90E+00 at (   8,   8,  32)
       Max divergence:  0.14E+03 at (   7,   6,  11)
       Min divergence: -0.53E+02 at (   8,   6,  11)
       Max VN number:   0.16E+00 at (   4,  10,  54)
       No. of Lagrangian Particles:          2527
       Total Heat Release Rate:          18865.392 kW
       Radiation Loss to Boundaries:     -4992.505 kW
 
       Time Step    4300   January 19, 2018  11:55:22
       Step Size:    0.691E-03 s, Total Time:      13.00 s
       Pressure Iterations:     10
       Maximum Velocity Error:  0.39E+00 on Mesh   1 at (   5  13   1)
       Maximum Pressure Error:  0.38E+05 on Mesh   1 at (   5  12   1)
       ---------------------------------------------------------------
       Max CFL number:  0.91E+00 at (   8,   9,  34)
       Max divergence:  0.12E+03 at (  10,  10,  10)
       Min divergence: -0.44E+02 at (   8,  11,  12)
       Max VN number:   0.16E+00 at (  14,   9,  57)
       No. of Lagrangian Particles:          2516
       Total Heat Release Rate:          24640.731 kW
       Radiation Loss to Boundaries:     -6873.967 kW
 
       Time Step    4400   January 19, 2018  11:55:36
       Step Size:    0.676E-03 s, Total Time:      13.08 s
       Pressure Iterations:     10
       Maximum Velocity Error:  0.34E+00 on Mesh   1 at (   5  12   1)
       Maximum Pressure Error:  0.22E+05 on Mesh   1 at (   5  12   1)
       ---------------------------------------------------------------
       Max CFL number:  0.88E+00 at (   9,   7,  39)
       Max divergence:  0.13E+03 at (   6,  11,   5)
       Min divergence: -0.50E+02 at (   9,   7,   9)
       Max VN number:   0.18E+00 at (   2,   6,  62)
       No. of Lagrangian Particles:          2326
       Total Heat Release Rate:          22655.178 kW
       Radiation Loss to Boundaries:     -6853.483 kW
 
       Time Step    4500   January 19, 2018  11:55:50
       Step Size:    0.818E-03 s, Total Time:      13.15 s
       Pressure Iterations:     10
       Maximum Velocity Error:  0.20E+00 on Mesh   1 at (  11   5   1)
       Maximum Pressure Error:  0.17E+05 on Mesh   1 at (   4  11   2)
       ---------------------------------------------------------------
       Max CFL number:  0.92E+00 at (   8,   8,  28)
       Max divergence:  0.16E+03 at (   5,   7,   4)
       Min divergence: -0.41E+02 at (   9,   7,   9)
       Max VN number:   0.18E+00 at (   8,  15,  56)
       No. of Lagrangian Particles:          2295
       Total Heat Release Rate:          15760.857 kW
       Radiation Loss to Boundaries:     -3842.499 kW
 
       Time Step    4600   January 19, 2018  11:56:05
       Step Size:    0.726E-03 s, Total Time:      13.23 s
       Pressure Iterations:     10
       Maximum Velocity Error:  0.76E-01 on Mesh   1 at (  12   5   1)
       Maximum Pressure Error:  0.15E+05 on Mesh   1 at (   1   9  59)
       ---------------------------------------------------------------
       Max CFL number:  0.86E+00 at (   7,   9,  31)
       Max divergence:  0.14E+03 at (  12,  10,   2)
       Min divergence: -0.35E+02 at (   7,  10,  15)
       Max VN number:   0.17E+00 at (   9,  10,  43)
       No. of Lagrangian Particles:          2415
       Total Heat Release Rate:          20899.256 kW
       Radiation Loss to Boundaries:     -5440.766 kW
 
       Time Step    4700   January 19, 2018  11:56:18
       Step Size:    0.716E-03 s, Total Time:      13.30 s
       Pressure Iterations:      7
       Maximum Velocity Error:  0.82E-01 on Mesh   1 at (   1  15   1)
       Maximum Pressure Error:  0.21E+05 on Mesh   1 at (  10  11   2)
       ---------------------------------------------------------------
       Max CFL number:  0.94E+00 at (   9,   9,  33)
       Max divergence:  0.10E+03 at (   6,  12,   2)
       Min divergence: -0.42E+02 at (   8,  10,  18)
       Max VN number:   0.15E+00 at (   7,   8,  30)
       No. of Lagrangian Particles:          2499
       Total Heat Release Rate:          18492.163 kW
       Radiation Loss to Boundaries:     -5171.704 kW
 
       Time Step    4800   January 19, 2018  11:56:31
       Step Size:    0.787E-03 s, Total Time:      13.38 s
       Pressure Iterations:     10
       Maximum Velocity Error:  0.49E-02 on Mesh   1 at (   2  16  18)
       Maximum Pressure Error:  0.59E+04 on Mesh   1 at (  12   1  62)
       ---------------------------------------------------------------
       Max CFL number:  0.86E+00 at (   8,   8,  37)
       Max divergence:  0.89E+02 at (   8,  10,   8)
       Min divergence: -0.43E+02 at (   7,   8,  19)
       Max VN number:   0.16E+00 at (   3,  14,  63)
       No. of Lagrangian Particles:          2479
       Total Heat Release Rate:          19656.346 kW
       Radiation Loss to Boundaries:     -5259.950 kW
 
       Time Step    4900   January 19, 2018  11:56:42
       Step Size:    0.707E-03 s, Total Time:      13.45 s
       Pressure Iterations:     10
       Maximum Velocity Error:  0.40E+00 on Mesh   1 at (  12  13   1)
       Maximum Pressure Error:  0.22E+05 on Mesh   1 at (  12  12   1)
       ---------------------------------------------------------------
       Max CFL number:  0.82E+00 at (   9,   9,  33)
       Max divergence:  0.94E+02 at (  11,  12,   2)
       Min divergence: -0.46E+02 at (  10,   8,   7)
       Max VN number:   0.14E+00 at (   9,  10,  55)
       No. of Lagrangian Particles:          2523
       Total Heat Release Rate:          16115.075 kW
       Radiation Loss to Boundaries:     -4439.982 kW
 
       Time Step    5000   January 19, 2018  11:56:54
       Step Size:    0.693E-03 s, Total Time:      13.53 s
       Pressure Iterations:     10
       Maximum Velocity Error:  0.83E-01 on Mesh   1 at (   5  13   1)
       Maximum Pressure Error:  0.76E+04 on Mesh   1 at (  11   6   2)
       ---------------------------------------------------------------
       Max CFL number:  0.84E+00 at (   8,   7,  39)
       Max divergence:  0.13E+03 at (   7,   9,  10)
       Min divergence: -0.66E+02 at (   7,   8,  10)
       Max VN number:   0.17E+00 at (   8,   7,  52)
       No. of Lagrangian Particles:          2549
       Total Heat Release Rate:          17474.581 kW
       Radiation Loss to Boundaries:     -5036.477 kW
 
       Time Step    5100   January 19, 2018  11:57:06
       Step Size:    0.751E-03 s, Total Time:      13.61 s
       Pressure Iterations:      6
       Maximum Velocity Error:  0.19E-01 on Mesh   1 at (   1  15   4)
       Maximum Pressure Error:  0.46E+04 on Mesh   1 at (   5  12   1)
       ---------------------------------------------------------------
       Max CFL number:  0.91E+00 at (   8,   9,  36)
       Max divergence:  0.13E+03 at (   8,   7,   6)
       Min divergence: -0.44E+02 at (   7,   9,  30)
       Max VN number:   0.22E+00 at (   7,  10,  42)
       No. of Lagrangian Particles:          2714
       Total Heat Release Rate:          19073.953 kW
       Radiation Loss to Boundaries:     -5311.250 kW
 
       Time Step    5200   January 19, 2018  11:57:18
       Step Size:    0.673E-03 s, Total Time:      13.68 s
       Pressure Iterations:      8
       Maximum Velocity Error:  0.23E-01 on Mesh   1 at (   1   2   1)
       Maximum Pressure Error:  0.10E+05 on Mesh   1 at (  12   1  61)
       ---------------------------------------------------------------
       Max CFL number:  0.89E+00 at (   8,   9,  38)
       Max divergence:  0.19E+03 at (  12,  11,   2)
       Min divergence: -0.45E+02 at (   7,   7,  10)
       Max VN number:   0.15E+00 at (  10,  10,  39)
       No. of Lagrangian Particles:          2704
       Total Heat Release Rate:          20239.610 kW
       Radiation Loss to Boundaries:     -6011.534 kW
 
       Time Step    5300   January 19, 2018  11:57:34
       Step Size:    0.665E-03 s, Total Time:      13.75 s
       Pressure Iterations:     10
       Maximum Velocity Error:  0.20E-01 on Mesh   1 at (   9   5   1)
       Maximum Pressure Error:  0.56E+04 on Mesh   1 at (  16  11  52)
       ---------------------------------------------------------------
       Max CFL number:  0.84E+00 at (   9,  10,  43)
       Max divergence:  0.12E+03 at (  11,   5,   3)
       Min divergence: -0.11E+03 at (  10,  12,   1)
       Max VN number:   0.16E+00 at (   7,   8,  35)
       No. of Lagrangian Particles:          2596
       Total Heat Release Rate:          18830.496 kW
       Radiation Loss to Boundaries:     -5422.464 kW
 
       Time Step    5400   January 19, 2018  11:57:46
       Step Size:    0.709E-03 s, Total Time:      13.82 s
       Pressure Iterations:     10
       Maximum Velocity Error:  0.11E-01 on Mesh   1 at (  15   1   1)
       Maximum Pressure Error:  0.12E+04 on Mesh   1 at (  12  10   2)
       ---------------------------------------------------------------
       Max CFL number:  0.85E+00 at (   9,   7,  36)
       Max divergence:  0.11E+03 at (  10,   5,   2)
       Min divergence: -0.39E+02 at (   7,   8,  11)
       Max VN number:   0.18E+00 at (   9,   7,  56)
       No. of Lagrangian Particles:          2604
       Total Heat Release Rate:          19095.522 kW
       Radiation Loss to Boundaries:     -5181.571 kW
 
       Time Step    5500   January 19, 2018  11:57:59
       Step Size:    0.780E-03 s, Total Time:      13.89 s
       Pressure Iterations:     10
       Maximum Velocity Error:  0.97E-02 on Mesh   1 at (  16   2  22)
       Maximum Pressure Error:  0.13E+04 on Mesh   1 at (   6   7  19)
       ---------------------------------------------------------------
       Max CFL number:  0.89E+00 at (   9,  12,  45)
       Max divergence:  0.17E+03 at (   9,   5,   2)
       Min divergence: -0.39E+02 at (  10,  11,  21)
       Max VN number:   0.17E+00 at (  11,   8,  49)
       No. of Lagrangian Particles:          2683
       Total Heat Release Rate:          16471.834 kW
       Radiation Loss to Boundaries:     -4451.309 kW
 
       Time Step    5600   January 19, 2018  11:58:12
       Step Size:    0.744E-03 s, Total Time:      13.97 s
       Pressure Iterations:      8
       Maximum Velocity Error:  0.35E-01 on Mesh   1 at (  16  15   1)
       Maximum Pressure Error:  0.11E+05 on Mesh   1 at (  11  12   2)
       ---------------------------------------------------------------
       Max CFL number:  0.88E+00 at (   9,   9,  35)
       Max divergence:  0.19E+03 at (  12,  12,   2)
       Min divergence: -0.37E+02 at (   6,   8,   2)
       Max VN number:   0.18E+00 at (   9,   2,  63)
       No. of Lagrangian Particles:          2579
       Total Heat Release Rate:          18492.941 kW
       Radiation Loss to Boundaries:     -5407.281 kW
 
       Time Step    5700   January 19, 2018  11:58:26
       Step Size:    0.728E-03 s, Total Time:      14.04 s
       Pressure Iterations:     10
       Maximum Velocity Error:  0.28E-01 on Mesh   1 at (   5   9   1)
       Maximum Pressure Error:  0.65E+04 on Mesh   1 at (  12   1  52)
       ---------------------------------------------------------------
       Max CFL number:  0.88E+00 at (   7,   8,  34)
       Max divergence:  0.16E+03 at (   5,  11,   2)
       Min divergence: -0.51E+02 at (   7,   8,  18)
       Max VN number:   0.18E+00 at (   8,   7,  31)
       No. of Lagrangian Particles:          2596
       Total Heat Release Rate:          21821.433 kW
       Radiation Loss to Boundaries:     -5178.208 kW
 
       Time Step    5800   January 19, 2018  11:58:40
       Step Size:    0.728E-03 s, Total Time:      14.11 s
       Pressure Iterations:     10
       Maximum Velocity Error:  0.13E-01 on Mesh   1 at (  13   8   1)
       Maximum Pressure Error:  0.29E+04 on Mesh   1 at (   5  10   3)
       ---------------------------------------------------------------
       Max CFL number:  0.90E+00 at (   6,   8,  37)
       Max divergence:  0.13E+03 at (   5,  11,   3)
       Min divergence: -0.43E+02 at (   6,   8,  37)
       Max VN number:   0.18E+00 at (   8,  10,  29)
       No. of Lagrangian Particles:          2713
       Total Heat Release Rate:          20220.677 kW
       Radiation Loss to Boundaries:     -5299.379 kW
 
       Time Step    5900   January 19, 2018  11:58:54
       Step Size:    0.622E-03 s, Total Time:      14.19 s
       Pressure Iterations:     10
       Maximum Velocity Error:  0.78E-01 on Mesh   1 at (   5   5   1)
       Maximum Pressure Error:  0.90E+04 on Mesh   1 at (   5   5   1)
       ---------------------------------------------------------------
       Max CFL number:  0.87E+00 at (   8,   7,  37)
       Max divergence:  0.12E+03 at (   6,  11,   4)
       Min divergence: -0.33E+02 at (   6,   7,   8)
       Max VN number:   0.16E+00 at (   8,   7,  37)
       No. of Lagrangian Particles:          2610
       Total Heat Release Rate:          22246.232 kW
       Radiation Loss to Boundaries:     -5784.317 kW
 
       Time Step    6000   January 19, 2018  11:59:08
       Step Size:    0.728E-03 s, Total Time:      14.26 s
       Pressure Iterations:      7
       Maximum Velocity Error:  0.39E-01 on Mesh   1 at (   2  16   1)
       Maximum Pressure Error:  0.69E+04 on Mesh   1 at (   6  11   3)
       ---------------------------------------------------------------
       Max CFL number:  0.85E+00 at (  10,  10,  34)
       Max divergence:  0.11E+03 at (  12,  12,   2)
       Min divergence: -0.50E+02 at (   9,  11,  41)
       Max VN number:   0.16E+00 at (   8,  10,  38)
       No. of Lagrangian Particles:          2440
       Total Heat Release Rate:          19449.225 kW
       Radiation Loss to Boundaries:     -5393.225 kW
 
       Time Step    6100   January 19, 2018  11:59:20
       Step Size:    0.728E-03 s, Total Time:      14.33 s
       Pressure Iterations:      9
       Maximum Velocity Error:  0.41E-01 on Mesh   1 at (  15   1   1)
       Maximum Pressure Error:  0.14E+05 on Mesh   1 at (  11  11   2)
       ---------------------------------------------------------------
       Max CFL number:  0.94E+00 at (   9,   7,  32)
       Max divergence:  0.13E+03 at (   7,  10,   7)
       Min divergence: -0.56E+02 at (   9,   7,  21)
       Max VN number:   0.16E+00 at (   2,   6,  58)
       No. of Lagrangian Particles:          2517
       Total Heat Release Rate:          21661.699 kW
       Radiation Loss to Boundaries:     -6359.667 kW
 
       Time Step    6200   January 19, 2018  11:59:35
       Step Size:    0.719E-03 s, Total Time:      14.40 s
       Pressure Iterations:     10
       Maximum Velocity Error:  0.38E-01 on Mesh   1 at (   7   5   1)
       Maximum Pressure Error:  0.86E+04 on Mesh   1 at (  12   8   2)
       ---------------------------------------------------------------
       Max CFL number:  0.85E+00 at (   8,   8,  35)
       Max divergence:  0.11E+03 at (   8,  12,   2)
       Min divergence: -0.35E+02 at (   9,   7,  18)
       Max VN number:   0.19E+00 at (   7,  10,  33)
       No. of Lagrangian Particles:          2509
       Total Heat Release Rate:          22256.725 kW
       Radiation Loss to Boundaries:     -6005.859 kW
 
       Time Step    6300   January 19, 2018  11:59:48
       Step Size:    0.710E-03 s, Total Time:      14.47 s
       Pressure Iterations:     10
       Maximum Velocity Error:  0.15E+00 on Mesh   1 at (   5  13   1)
       Maximum Pressure Error:  0.15E+05 on Mesh   1 at (   5  12   1)
       ---------------------------------------------------------------
       Max CFL number:  0.88E+00 at (   8,   7,  36)
       Max divergence:  0.18E+03 at (   6,  11,   2)
       Min divergence: -0.40E+02 at (   8,  10,  15)
       Max VN number:   0.16E+00 at (   8,   6,  39)
       No. of Lagrangian Particles:          2404
       Total Heat Release Rate:          21601.154 kW
       Radiation Loss to Boundaries:     -5639.455 kW
 
       Time Step    6400   January 19, 2018  12:00:00
       Step Size:    0.710E-03 s, Total Time:      14.54 s
       Pressure Iterations:     10
       Maximum Velocity Error:  0.73E-02 on Mesh   1 at (   2  16  13)
       Maximum Pressure Error:  0.72E+04 on Mesh   1 at (   1   5  61)
       ---------------------------------------------------------------
       Max CFL number:  0.82E+00 at (   7,  10,  36)
       Max divergence:  0.12E+03 at (  12,   5,   2)
       Min divergence: -0.35E+02 at (  11,   6,   2)
       Max VN number:   0.14E+00 at (   7,  10,  35)
       No. of Lagrangian Particles:          2516
       Total Heat Release Rate:          14458.089 kW
       Radiation Loss to Boundaries:     -4546.500 kW
 
       Time Step    6500   January 19, 2018  12:00:14
       Step Size:    0.781E-03 s, Total Time:      14.62 s
       Pressure Iterations:     10
       Maximum Velocity Error:  0.87E-01 on Mesh   1 at (   5  13   1)
       Maximum Pressure Error:  0.63E+04 on Mesh   1 at (   7  11  18)
       ---------------------------------------------------------------
       Max CFL number:  0.87E+00 at (   8,   9,  38)
       Max divergence:  0.18E+03 at (   5,  12,   1)
       Min divergence: -0.40E+02 at (   8,   7,  12)
       Max VN number:   0.19E+00 at (   9,   8,  39)
       No. of Lagrangian Particles:          2548
       Total Heat Release Rate:          17094.894 kW
       Radiation Loss to Boundaries:     -4350.018 kW
 
       Time Step    6600   January 19, 2018  12:00:29
       Step Size:    0.697E-03 s, Total Time:      14.69 s
       Pressure Iterations:      9
       Maximum Velocity Error:  0.24E-01 on Mesh   1 at (  13  12   1)
       Maximum Pressure Error:  0.62E+04 on Mesh   1 at (  11   8   4)
       ---------------------------------------------------------------
       Max CFL number:  0.85E+00 at (   9,   7,  41)
       Max divergence:  0.10E+03 at (   5,  11,   2)
       Min divergence: -0.44E+02 at (  10,   8,  12)
       Max VN number:   0.17E+00 at (   8,   2,  63)
       No. of Lagrangian Particles:          2495
       Total Heat Release Rate:          20515.273 kW
       Radiation Loss to Boundaries:     -5160.497 kW
 
       Time Step    6700   January 19, 2018  12:00:41
       Step Size:    0.697E-03 s, Total Time:      14.76 s
       Pressure Iterations:      7
       Maximum Velocity Error:  0.26E-01 on Mesh   1 at (   2  16   1)
       Maximum Pressure Error:  0.11E+05 on Mesh   1 at (   1   6  48)
       ---------------------------------------------------------------
       Max CFL number:  0.88E+00 at (   8,   8,  39)
       Max divergence:  0.12E+03 at (  11,   5,   2)
       Min divergence: -0.41E+02 at (   7,   9,  11)
       Max VN number:   0.18E+00 at (  10,   9,  42)
       No. of Lagrangian Particles:          2574
       Total Heat Release Rate:          26037.930 kW
       Radiation Loss to Boundaries:     -7781.413 kW
 
       Time Step    6800   January 19, 2018  12:00:54
       Step Size:    0.767E-03 s, Total Time:      14.83 s
       Pressure Iterations:      9
       Maximum Velocity Error:  0.30E-01 on Mesh   1 at (   2  16   2)
       Maximum Pressure Error:  0.72E+04 on Mesh   1 at (  12   9   2)
       ---------------------------------------------------------------
       Max CFL number:  0.93E+00 at (   9,   9,  50)
       Max divergence:  0.13E+03 at (  11,  12,   3)
       Min divergence: -0.31E+02 at (  10,  11,   8)
       Max VN number:   0.19E+00 at (   5,   4,  51)
       No. of Lagrangian Particles:          2430
       Total Heat Release Rate:          17191.750 kW
       Radiation Loss to Boundaries:     -4461.881 kW
 
       Time Step    6900   January 19, 2018  12:01:07
       Step Size:    0.753E-03 s, Total Time:      14.91 s
       Pressure Iterations:      7
       Maximum Velocity Error:  0.23E-01 on Mesh   1 at (  16  15   1)
       Maximum Pressure Error:  0.35E+04 on Mesh   1 at (  12   6   2)
       ---------------------------------------------------------------
       Max CFL number:  0.82E+00 at (  10,   9,  50)
       Max divergence:  0.15E+03 at (   5,  12,   2)
       Min divergence: -0.38E+02 at (   7,   7,  17)
       Max VN number:   0.15E+00 at (  13,  11,  57)
       No. of Lagrangian Particles:          2563
       Total Heat Release Rate:          17807.438 kW
       Radiation Loss to Boundaries:     -5028.019 kW
 
       Time Step    7000   January 19, 2018  12:01:19
       Step Size:    0.744E-03 s, Total Time:      14.99 s
       Pressure Iterations:     10
       Maximum Velocity Error:  0.33E+00 on Mesh   1 at (   5  12   1)
       Maximum Pressure Error:  0.18E+05 on Mesh   1 at (   1   9  60)
       ---------------------------------------------------------------
       Max CFL number:  0.94E+00 at (   7,   9,  39)
       Max divergence:  0.14E+03 at (  10,  12,   4)
       Min divergence: -0.40E+02 at (   8,  10,  12)
       Max VN number:   0.15E+00 at (   8,   9,  43)
       No. of Lagrangian Particles:          2656
       Total Heat Release Rate:          20118.049 kW
       Radiation Loss to Boundaries:     -5271.337 kW
 
       Time Step    7018   January 19, 2018  12:01:21
       Step Size:    0.184E-04 s, Total Time:      15.00 s
       Pressure Iterations:     10
       Maximum Velocity Error:  0.34E-01 on Mesh   1 at (   5  11   1)
       Maximum Pressure Error:  0.23E+06 on Mesh   1 at (   8  12   2)
       ---------------------------------------------------------------
       Max CFL number:  0.24E-01 at (   9,   8,  35)
       Max divergence:  0.15E+03 at (  10,  11,   6)
       Min divergence: -0.54E+02 at (   9,  11,   7)
       Max VN number:   0.44E-02 at (  10,   9,  18)
       No. of Lagrangian Particles:          2572
       Total Heat Release Rate:          19150.777 kW
       Radiation Loss to Boundaries:     -4593.940 kW
 


 DEVICE Activation Times

   1  whirl_on                                                        10.0 s


 Time Stepping Wall Clock Time (s):      915.236
 Total Elapsed Wall Clock Time (s):      919.177

STOP: FDS completed successfully (CHID: fire_whirl_pool)
