&HEAD CHID='WF16slow'/
&TIME T_END=980.00/
&DUMP RENDER_FILE='WF16slow.ge1', DT_PL3D=100.00, NFRAMES=1960/
&MISC TMPA=21.00, BAROCLINIC=.TRUE./
&MESH ID='MESH 1', IJK=78,102,63, XB=-3.40,4.40, -1.90,8.30, -0.1,6.20/
&MESH ID='MESH 2', IJK=84,102,63, XB=4.40,12.80, -1.90,8.30, -0.1,6.20/
&MESH ID='MESH 3', IJK=84,102,63, XB=12.80,21.20, -1.90,8.30, -0.1,6.20/
&MESH ID='MESH 4', IJK=72,102,63, XB=21.20,28.40, -1.90,8.30, -0.1,6.20/
&MESH ID='MESH 5', IJK=72,102,63, XB=28.40,35.60, -1.90,8.30, -0.1,6.20/
&MESH ID='MESH 6', IJK=78,108,63, XB=-3.40,4.40,8.30,19.10, -0.1, 6.20/
&MESH ID='MESH 7', IJK=84,108,63, XB=4.40,12.80,8.30,19.10, -0.1,6.20/
&MESH ID='MESH 8', IJK=84,108,63, XB=12.80,21.20,8.30,19.10, -0.1,6.20/
&MESH ID='MESH 9', IJK=72,108,63, XB=21.20,28.40,8.30,19.10, -0.1,6.20/
&MESH ID='MESH10', IJK=72,108,63, XB=28.40,35.60,8.30,19.10, -0.1,6.20/
&MESH ID='MESH 11', IJK=78,102,48, XB=-3.40,4.40, -1.90,8.30,6.20,11.00/
&MESH ID='MESH 12', IJK=84,102,48, XB=4.40,12.80, -1.90,8.30,6.20,11.00/
&MESH ID='MESH 13', IJK=84,102,48, XB=12.80,21.20, -1.90,8.30,6.20,11.00/
&MESH ID='MESH 14', IJK=72,102,48, XB=21.20,28.40, -1.90,8.30,6.20,11.00/
&MESH ID='MESH 15', IJK=72,102,48, XB=28.40,35.60, -1.90,8.30,6.20,11.00/
&MESH ID='MESH 16', IJK=78,108,48, XB=-3.40,4.40,8.30,19.10,6.20,11.00/
&MESH ID='MESH 17', IJK=84,108,48, XB=4.40,12.80,8.30,19.10,6.20,11.00/
&MESH ID='MESH 18', IJK=84,108,48, XB=12.80,21.20,8.30,19.10,6.20,11.00/
&MESH ID='MESH 19', IJK=72,108,48, XB=21.20,28.40,8.30,19.10,6.20,11.00/
&MESH ID='MESH 20', IJK=72,108,48, XB=28.40,35.60,8.30,19.10,6.20,11.00/
&MESH ID='MESHW1', IJK=248,27,37, XB=-21.40,53.00, -10.00, -1.90, -0.1,11.00/
&MESH ID='MESHW2', IJK=248,27,37, XB=-21.40,53.00,19.10,27.20, -0.1,11.00/
&MESH ID='MESHW3', IJK=60,70,37, XB=-21.40, -3.40, -1.90,19.10, -0.1,11.00/
&MESH ID='MESHW4', IJK=58,70,37, XB=35.60,53.00, -1.90,19.10, -0.1,11.00/
&REAC ID='Wood',
 FYI='Ritchie, et al., 5th IAFSS, C_3.4 H_6.2 O_2.5',
 C=1.00,
 H=1.70,
 O=0.74,
 N=2.00E-3,
 HEAT_OF_COMBUSTION=1.30E4/
&MATL ID='Gypsum',
 FYI='Drysdale, P. 36',
 SPECIFIC_HEAT=1.09,
 CONDUCTIVITY=0.1700,
 DENSITY=930.00/
&MATL ID='Fiberglass Insulation',
 FYI='fiberglass r13, values from engineering toolbox, cp is from glass',
 SPECIFIC_HEAT=0.84,
 CONDUCTIVITY=0.0400,
 DENSITY=14.00/
&MATL ID='DougFir',
 FYI='Ref=Spearpoint''s thesis, except cp',
 SPECIFIC_HEAT=1.80,
 CONDUCTIVITY=0.1300,
 DENSITY=502.00,
 HEAT_OF_COMBUSTION=1.30E4/
&MATL ID='Glass',
 FYI='Drysdale, P. 36',
 SPECIFIC_HEAT=0.84,
 CONDUCTIVITY=0.76,
 DENSITY=2.70E3/
&MATL ID='Cotton',
 SPECIFIC_HEAT=1.29,
 CONDUCTIVITY=0.1100,
 DENSITY=16.40,
 HEAT_OF_COMBUSTION=1.56E4/
&MATL ID='Brick',
 FYI='Drysdale, P. 36',
 SPECIFIC_HEAT=0.84,
 CONDUCTIVITY=0.69,
 DENSITY=1.60E3/
&MATL ID='Carpet',
 FYI='WTC report value',
 SPECIFIC_HEAT=4.50,
 CONDUCTIVITY=0.1600,
 DENSITY=750.00,
 HEAT_OF_COMBUSTION=2.23E4/
&SURF ID='Ceiling Gypsum',
 COLOR='TAN',
 HRRPUA=225.00,
 RAMP_Q='Ceiling Gypsum_RAMP_Q',
 IGNITION_TEMPERATURE=400.00,
 BACKING='EXPOSED',
 MATL_ID(1,1)='Gypsum',
 MATL_ID(2,1)='Fiberglass Insulation',
 MATL_MASS_FRACTION(1,1)=1.00,
 MATL_MASS_FRACTION(2,1)=1.00,
 THICKNESS(1:2)=0.0200,0.0900/
&RAMP ID='Ceiling Gypsum_RAMP_Q', T=0.00, F=0.0100/
&RAMP ID='Ceiling Gypsum_RAMP_Q', T=2.00, F=0.0200/
&RAMP ID='Ceiling Gypsum_RAMP_Q', T=3.64, F=0.1600/
&RAMP ID='Ceiling Gypsum_RAMP_Q', T=4.24, F=0.40900/
&RAMP ID='Ceiling Gypsum_RAMP_Q', T=6.67, F=0.78/
&RAMP ID='Ceiling Gypsum_RAMP_Q', T=7.88, F=1.00/
&RAMP ID='Ceiling Gypsum_RAMP_Q', T=15.76, F=0.40900/
&RAMP ID='Ceiling Gypsum_RAMP_Q', T=18.18, F=0.2600/
&RAMP ID='Ceiling Gypsum_RAMP_Q', T=24.85, F=0.1100/
&RAMP ID='Ceiling Gypsum_RAMP_Q', T=41.21, F=0.0600/
&RAMP ID='Ceiling Gypsum_RAMP_Q', T=62.42, F=0.0700/
&RAMP ID='Ceiling Gypsum_RAMP_Q', T=78.79, F=0.0700/
&SURF ID='Attic Gypsum',
 RGB=204,153,0,
 BACKING='EXPOSED',
 MATL_ID(1,1)='Fiberglass Insulation',
 MATL_ID(2,1)='Gypsum',
 MATL_MASS_FRACTION(1,1)=1.00,
 MATL_MASS_FRACTION(2,1)=1.00,
 THICKNESS(1:2)=0.0900,0.0200/
&SURF ID='Closet Burner',
 COLOR='RED',
 HRRPUA=280.00,
 RAMP_Q='Closet Burner_RAMP_Q'/
&RAMP ID='Closet Burner_RAMP_Q', T=0.00, F=0.00/
&RAMP ID='Closet Burner_RAMP_Q', T=3.00, F=1.00/
&RAMP ID='Closet Burner_RAMP_Q', T=100.00, F=1.00/
&RAMP ID='Closet Burner_RAMP_Q', T=101.00, F=0.00/
&SURF ID='Attic Burner',
 COLOR='RED',
 CONVECTIVE_HEAT_FLUX=75.00,
 RAMP_Q='Attic Burner_RAMP_Q2',
 HRRPUA=1.00E3/
&RAMP ID='Attic Burner_RAMP_Q', T=0.00, F=0.00/
&RAMP ID='Attic Burner_RAMP_Q', T=10.00, F=1.00/
&RAMP ID='Attic Burner_RAMP_Q', T=150.00, F=1.00/
&RAMP ID='Attic Burner_RAMP_Q', T=151.00, F=0.00/
&RAMP ID='Attic Burner_RAMP_Q2', T=0.00, F=0.00/
&RAMP ID='Attic Burner_RAMP_Q2', T=10.00, F=1.00/
&RAMP ID='Attic Burner_RAMP_Q2', T=150.00, F=1.00/
&RAMP ID='Attic Burner_RAMP_Q2', T=151.00, F=0.00/
&SURF ID='Gypsum',
  COLOR='TAN',
 HRRPUA=225.00,
 RAMP_Q='Gypsum_RAMP_Q',
 IGNITION_TEMPERATURE=400.00,
 MATL_ID(1,1)='Gypsum',
 MATL_MASS_FRACTION(1,1)=1.00,
 THICKNESS(1)=0.0127/
&RAMP ID='Gypsum_RAMP_Q', T=0.00, F=0.0100/
&RAMP ID='Gypsum_RAMP_Q', T=2.00, F=0.0200/
&RAMP ID='Gypsum_RAMP_Q', T=3.64, F=0.1600/
&RAMP ID='Gypsum_RAMP_Q', T=4.24, F=0.40900/
&RAMP ID='Gypsum_RAMP_Q', T=6.67, F=0.78/
&RAMP ID='Gypsum_RAMP_Q', T=7.88, F=1.00/
&RAMP ID='Gypsum_RAMP_Q', T=15.76, F=0.40900/
&RAMP ID=' Gypsum_RAMP_Q', T=18.18, F=0.2600/
&RAMP ID='Gypsum_RAMP_Q', T=24.85, F=0.1100/
&RAMP ID='Gypsum_RAMP_Q', T=41.21, F=0.0600/
&RAMP ID='Gypsum_RAMP_Q', T=62.42, F=0.0700/
&RAMP ID='Gypsum_RAMP_Q', T=78.79, F=0.0700/
&SURF ID='Closet Walls',
 FYI='Tig from Janssens, cone derived props from Spearpoint',
 RGB=146,202,166,
 TEXTURE_MAP='psm_spruce.jpg',
 TEXTURE_WIDTH=0.67,
 TEXTURE_HEIGHT=2.44,
 HRRPUA=181.39,
 RAMP_Q='Closet Walls_RAMP_Q',
 IGNITION_TEMPERATURE=384.00,
 BACKING='EXPOSED',
 MATL_ID(1,1)='DougFir',
 MATL_ID(2,1)='Gypsum',
 MATL_MASS_FRACTION(1,1)=1.00,
 MATL_MASS_FRACTION(2,1)=1.00,
 THICKNESS(1:2)=6.00E-3,0.0127/
&RAMP ID='Closet Walls_RAMP_Q', T=0.00, F=0.00/
&RAMP ID='Closet Walls_RAMP_Q', T=0.1000, F=0.00/
&RAMP ID='Closet Walls_RAMP_Q', T=0.3800, F=0.3600/
&RAMP ID='Closet Walls_RAMP_Q', T=1.61, F=0.69/
&RAMP ID='Closet Walls_RAMP_Q', T=2.52, F=0.94/
&RAMP ID='Closet Walls_RAMP_Q', T=8.19, F=1.00/
&RAMP ID=' Closet Walls_RAMP_Q', T=10.11, F=0.94/
&RAMP ID='Closet Walls_RAMP_Q', T=15.38, F=0.89/
&RAMP ID='Closet Walls_RAMP_Q', T=20.72, F=0.83/
&RAMP ID='Closet Walls_RAMP_Q', T=22.83, F=0.72/
&RAMP ID='Closet Walls_RAMP_Q', T=38.51, F=0.62/
&RAMP ID='Closet Walls_RAMP_Q', T=60.92, F=0.54/
&RAMP ID='Closet Walls_RAMP_Q', T=91.81, F=0.40600/
&RAMP ID='Closet Walls_RAMP_Q', T=127.72, F=0.40/
&RAMP ID='Closet Walls_RAMP_Q', T=171.96, F=0.3900/
&RAMP ID='Closet Walls_RAMP_Q', T=241.78, F=0.3600/
&RAMP ID='Closet Walls_RAMP_Q', T=323.44, F=0.3500/
&RAMP ID='Closet Walls_RAMP_Q', T=376.20, F=0.3300/
&RAMP ID='Closet Walls_RAMP_Q', T=442.49, F=0.3300/
&RAMP ID='Closet Walls_RAMP_Q', T=522.44, F=0.3200/
! ... 9 like lines cut
&SURF ID='Roof Sheathing',
 RGB=153,102,0,
 HRRPUA=181.39,
 RAMP_Q='Roof Sheathing_RAMP_Q',
 IGNITION_TEMPERATURE=384.00,
 BACKING='EXPOSED',
 MATL_ID(1,1)='DougFir',
 MATL_MASS_FRACTION(1,1)=1.00,
 THICKNESS(1)=0.0190/
&RAMP ID='Roof Sheathing_RAMP_Q', T=0.00, F=0.00/
&RAMP ID='Roof Sheathing_RAMP_Q', T=0.1000, F=0.00/
&RAMP ID='Roof Sheathing_RAMP_Q', T=0.3800, F=0.3600/
&RAMP ID='Roof Sheathing_RAMP_Q', T=1.61, F=0.69/
&RAMP ID='Roof Sheathing_RAMP_Q', T=2.52, F=0.94/
&RAMP ID='Roof Sheathing_RAMP_Q', T=8.19, F=1.00/
&RAMP ID='Roof Sheathing_RAMP_Q', T=10.11, F=0.94/
&RAMP ID='Roof Sheathing_RAMP_Q', T=15.38, F=0.89/
&RAMP ID='Roof Sheathing_RAMP_Q', T=20.72, F=0.83/
&RAMP ID='Roof Sheathing_RAMP_Q', T=22.83, F=0.72/
&RAMP ID='Roof Sheathing_RAMP_Q', T=38.51, F=0.62/
&RAMP ID='Roof Sheathing_RAMP_Q', T=60.92, F=0.54/
&RAMP ID='Roof Sheathing_RAMP_Q', T=91.81, F=0.40600/
&RAMP ID='Roof Sheathing_RAMP_Q', T=127.72, F=0.40/
&RAMP ID='Roof Sheathing_RAMP_Q', T=171.96, F=0.3900/
&RAMP ID='Roof Sheathing_RAMP_Q', T=241.78, F=0.3600/
&RAMP ID='Roof Sheathing_RAMP_Q', T=323.44, F=0.3500/
&RAMP ID='Roof Sheathing_RAMP_Q', T=376.20, F=0.3300/
&RAMP ID='Roof Sheathing_RAMP_Q', T=442.49, F=0.3300/
&RAMP ID='Roof Sheathing_RAMP_Q', T=522.44, F=0.3200/
! ... 5 like lines cut
&SURF ID='Wood Joists02',
  RGB=168,96,0,
 HRRPUA=181.39,
 RAMP_Q='Wood Joists02_RAMP_Q',
 IGNITION_TEMPERATURE=384.00,
 BACKING='EXPOSED',
 MATL_ID(1,1)='DougFir',
 MATL_MASS_FRACTION(1,1)=1.00,
 THICKNESS(1)=0.0380/
&RAMP ID='Wood Joists02_RAMP_Q', T=0.00, F=0.00/
&RAMP ID='Wood Joists02_RAMP_Q', T=0.1000, F=0.00/
&RAMP ID='Wood Joists02_RAMP_Q', T=0.3800, F=0.3600/
&RAMP ID='Wood Joists02_RAMP_Q', T=1.61, F=0.69/
&RAMP ID='Wood Joists02_RAMP_Q', T=2.52, F=0.94/
&RAMP ID='Wood Joists02_RAMP_Q', T=8.19, F=1.00/
&RAMP ID='Wood Joists02_RAMP_Q', T=10.11, F=0.94/
&RAMP ID='Wood Joists02_RAMP_Q', T=15.38, F=0.89/
&RAMP ID='Wood Joists02_RAMP_Q', T=20.72, F=0.83/
&RAMP ID='Wood Joists02_RAMP_Q', T=22.83, F=0.72/
&RAMP ID='Wood Joists02_RAMP_Q', T=38.51, F=0.62/
&RAMP ID='Wood Joists02_RAMP_Q', T=60.92, F=0.54/
&RAMP ID='Wood Joists02_RAMP_Q', T=91.81, F=0.40600/
&RAMP ID='Wood Joists02_RAMP_Q', T=127.72, F=0.40/
&RAMP ID='Wood Joists02_RAMP_Q', T=171.96, F=0.3900/
&RAMP ID='Wood Joists02_RAMP_Q', T=241.78, F=0.3600/
&RAMP ID='Wood Joists02_RAMP_Q', T=323.44, F=0.3500/
&RAMP ID='Wood Joists02_RAMP_Q', T=376.20, F=0.3300/
&RAMP ID='Wood Joists02_RAMP_Q', T=442.49, F=0.3300/
&RAMP ID='Wood Joists02_RAMP_Q', T=522.44, F=0.3200/
! ... 5 like lines cut
&SURF ID='Overhang Matl',
 RGB=204,102,0/
&SURF ID='Glass',
 RGB=0,255,255,
 TRANSPARENCY=0.60,
 BACKING='EXPOSED',
 MATL_ID(1,1)='Glass',
 MATL_MASS_FRACTION(1,1)=1.00,
 THICKNESS(1)=5.00E-3/
&SURF ID='Roof Sheathing02',
 RGB=153,102,0,
 HRRPUA=181.39,
 RAMP_Q='Roof Sheathing02_RAMP_Q',
 IGNITION_TEMPERATURE=384.00,
 TMP_INNER=100.00,
 BACKING='EXPOSED',
 MATL_ID(1,1)='DougFir',
 MATL_MASS_FRACTION(1,1)=1.00,
 THICKNESS(1)=0.0190/
&RAMP ID='Roof Sheathing02_RAMP_Q', T=0.00, F=0.00/
&RAMP ID='Roof Sheathing02_RAMP_Q', T=0.1000, F=0.00/
&RAMP ID='Roof Sheathing02_RAMP_Q', T=0.3800, F=0.3600/
&RAMP ID='Roof Sheathing02_RAMP_Q', T=1.61, F=0.69/
&RAMP ID='Roof Sheathing02_RAMP_Q', T=2.52, F=0.94/
&RAMP ID='Roof Sheathing02_RAMP_Q', T=8.19, F=1.00/
&RAMP ID='Roof Sheathing02_RAMP_Q', T=10.11, F=0.94/
&RAMP ID='Roof Sheathing02_RAMP_Q', T=15.38, F=0.89/
&RAMP ID='Roof Sheathing02_RAMP_Q', T=20.72, F=0.83/
&RAMP ID='Roof Sheathing02_RAMP_Q', T=22.83, F=0.72/
&RAMP ID='Roof Sheathing02_RAMP_Q', T=38.51, F=0.62/
&RAMP ID='Roof Sheathing02_RAMP_Q', T=60.92, F=0.54/
&RAMP ID='Roof Sheathing02_RAMP_Q', T=91.81, F=0.40600/
&RAMP ID='Roof Sheathing02_RAMP_Q', T=127.72, F=0.40/
&RAMP ID='Roof Sheathing02_RAMP_Q', T=171.96, F=0.3900/
&RAMP ID='Roof Sheathing02_RAMP_Q', T=241.78, F=0.3600/
&RAMP ID='Roof Sheathing02_RAMP_Q', T=323.44, F=0.3500/
&RAMP ID='Roof Sheathing02_RAMP_Q', T=376.20, F=0.3300/
&RAMP ID='Roof Sheathing02_RAMP_Q', T=442.49, F=0.3300/
&RAMP ID='Roof Sheathing02_RAMP_Q', T=522.44, F=0.3200/
! ... 5 like lines cut
&SURF ID='Vent Flow',
 RGB=51,51,204,
 VOLUME_FLUX=0.1750,
 POROUS=.TRUE./
&SURF ID='Cotton',
 RGB=153,153,0,
 MLRPUA=0.0144,
 RAMP_Q='Cotton_RAMP_Q',
 IGNITION_TEMPERATURE=265.00,
 BURN_AWAY=.TRUE.,
 BACKING='EXPOSED',
 MATL_ID(1,1)='Cotton',
 MATL_MASS_FRACTION(1,1)=1.00,
 THICKNESS(1)=0.1000/
&RAMP ID='Cotton_RAMP_Q', T=0.00, F=0.00/
&RAMP ID='Cotton_RAMP_Q', T=5.00, F=0.0107/
&RAMP ID='Cotton_RAMP_Q', T=15.00, F=0.0106/
&RAMP ID='Cotton_RAMP_Q', T=16.00, F=0.1403/
&RAMP ID='Cotton_RAMP_Q', T=21.00, F=1.00/
&RAMP ID='Cotton_RAMP_Q', T=36.00, F=0.99/
&RAMP ID='Cotton_RAMP_Q', T=51.00, F=0.81/
&RAMP ID='Cotton_RAMP_Q', T=74.00, F=0.64/
&RAMP ID='Cotton_RAMP_Q', T=86.00, F=0.61/
&RAMP ID='Cotton_RAMP_Q', T=106.00, F=0.80/
&RAMP ID='Cotton_RAMP_Q', T=123.00, F=0.85/
&RAMP ID='Cotton_RAMP_Q', T=161.00, F=0.75/
&RAMP ID='Cotton_RAMP_Q', T=222.00, F=0.2074/
&RAMP ID='Cotton_RAMP_Q', T=279.00, F=0.0390/
&RAMP ID='Cotton_RAMP_Q', T=307.00, F=0.0385/
&RAMP ID='Cotton_RAMP_Q', T=324.00, F=5.8067250E-3/
&RAMP ID='Cotton_RAMP_Q', T=324.14, F=5.8067250E-3/
&SURF ID='shelf',
 RGB=153,102,0,
 MATL_ID(1,1)='DougFir',
 MATL_MASS_FRACTION(1,1)=1.00,
 THICKNESS(1)=0.0130/
&SURF ID='Brick',
 RGB=102,0,0,
 TEXTURE_MAP='psm_brick.jpg',
 TEXTURE_WIDTH=0.81,
 TEXTURE_HEIGHT=0.81,
 MATL_ID(1,1)='Brick',
 MATL_MASS_FRACTION(1,1) =1.00,
 THICKNESS(1)=0.0900/
&SURF ID='CouchBurner',
 FYI='HRR input determined from Couch Room Burn #19 data from UCF June 2010 LFL experiments',
 COLOR='RED',
 HRRPUA=498.00,
 RAMP_Q='CouchBurner_RAMP_Q'/
&RAMP ID='CouchBurner_RAMP_Q', T=0.00, F=0.00/
&RAMP ID='CouchBurner_RAMP_Q', T=300.00, F=0.00/
&RAMP ID='CouchBurner_RAMP_Q', T=320.00, F=0.0246/
&RAMP ID='CouchBurner_RAMP_Q', T=340.00, F=0.0769/
&RAMP ID='CouchBurner_RAMP_Q', T=360.00, F=0.1384/
&RAMP ID='CouchBurner_RAMP_Q', T=380.00, F=0.1787/
&RAMP ID='CouchBurner_RAMP_Q', T=400.00, F=0.51/
&RAMP ID='CouchBurner_RAMP_Q', T=420.00, F=0.84/
&RAMP ID='CouchBurner_RAMP_Q', T=440.00, F=0.74/
&RAMP ID='CouchBurner_RAMP_Q', T=460.00, F=0.72/
&RAMP ID='CouchBurner_RAMP_Q', T=480.00, F=0.85/
&RAMP ID='CouchBurner_RAMP_Q', T=500.00, F=1.00/
&RAMP ID='CouchBurner_RAMP_Q', T=520.00, F=0.91/
&RAMP ID='CouchBurner_RAMP_Q', T=540.00, F=0.94/
&RAMP ID='CouchBurner_RAMP_Q', T=560.00, F=0.87/
&RAMP ID='CouchBurner_RAMP_Q', T=580.00, F=0.83/
&RAMP ID='CouchBurner_RAMP_Q', T=600.00, F=0.77/
&RAMP ID='CouchBurner_RAMP_Q', T=620.00, F=0.67/
&RAMP ID='CouchBurner_RAMP_Q', T=640.00, F=0.57/
&RAMP ID='CouchBurner_RAMP_Q', T=660.00, F=0.53/
! ... 17 like lines cut
&SURF ID='Sofa',
 RGB=51,51,255,
 BACKING='EXPOSED',
 MATL_ID(1,1)='Fiberglass Insulation',
 MATL_MASS_FRACTION(1,1)=1.00,
 THICKNESS(1)=0.1000/
&SURF ID='CouchBurner2',
 FYI='HRR input determined from Couch Room Burn #19 data from UCF June 2010 LFL experiments',
 COLOR='RED',
 HRRPUA=498.00,
 RAMP_Q='CouchBurner2_RAMP_Q'/
&RAMP ID='CouchBurner2_RAMP_Q', T=0.00, F=0.00/
&RAMP ID='CouchBurner2_RAMP_Q', T=640.00, F=0.00/
&RAMP ID='CouchBurner2_RAMP_Q', T=660.00, F=0.0246/
&RAMP ID='CouchBurner2_RAMP_Q', T=680.00, F=0.0769/
&RAMP ID='CouchBurner2_RAMP_Q', T=700.00, F=0.1384/
&RAMP ID='CouchBurner2_RAMP_Q', T=720.00, F=0.1787/
&RAMP ID='CouchBurner2_RAMP_Q', T=740.00, F=0.51/
&RAMP ID='CouchBurner2_RAMP_Q', T=760.00, F=0.84/
&RAMP ID='CouchBurner2_RAMP_Q', T=780.00, F=0.74/
&RAMP ID='CouchBurner2_RAMP_Q', T=800.00, F=0.72/
&RAMP ID='CouchBurner2_RAMP_Q', T=820.00, F=0.85/
&RAMP ID='CouchBurner2_RAMP_Q', T=840.00, F=1.00/
&RAMP ID='CouchBurner2_RAMP_Q', T=860.00, F=0.91/
&RAMP ID='CouchBurner2_RAMP_Q', T=880.00, F=0.94/
&RAMP ID='CouchBurner2_RAMP_Q', T=900.00, F=0.87/
&RAMP ID='CouchBurner2_RAMP_Q', T=920.00, F=0.83/
&RAMP ID='CouchBurner2_RAMP_Q', T=940. 00, F=0.77/
&RAMP ID='CouchBurner2_RAMP_Q', T=960.00, F=0.67/
&RAMP ID='CouchBurner2_RAMP_Q', T=980.00, F=0.57/
&RAMP ID='CouchBurner2_RAMP_Q', T=1.00E3, F=0.53/
! ... 26 like lines cut
&SURF ID='Wood Floor',
 RGB=153,102,0,
 TEXTURE_MAP='psm_wood2.jpg',
 TEXTURE_WIDTH=0.61,
 TEXTURE_HEIGHT=0.61,
 HRRPUA=181.39,
 RAMP_Q='Wood Floor_RAMP_Q',
 IGNITION_TEMPERATURE=384.00,
 BACKING='EXPOSED',
 MATL_ID(1,1)='DougFir',
 MATL_MASS_FRACTION(1,1)=1.00,
 THICKNESS(1)=0.0190/
&RAMP ID='Wood Floor_RAMP_Q', T=0.00, F=0.00/
&RAMP ID='Wood Floor_RAMP_Q', T=0.1000, F=0.00/
&RAMP ID='Wood Floor_RAMP_Q', T=0.3800, F=0.3600/
&RAMP ID='Wood Floor_RAMP_Q', T=1.61, F=0.69/
&RAMP ID='Wood Floor_RAMP_Q', T=2.52, F=0.94/
&RAMP ID='Wood Floor_RAMP_Q', T=8.19, F=1.00/
&RAMP ID='Wood Floor_RAMP_Q', T=10.11, F=0.94/
&RAMP ID='Wood Floor_RAMP_Q', T=15.38, F=0.89/
&RAMP ID='Wood Floor_RAMP_Q', T=20.72, F=0.83/
&RAMP ID='Wood Floor_RAMP_Q', T=22.83, F=0.72/
&RAMP ID='Wood Floor_RAMP_Q', T=38.51, F=0.62/
&RAMP ID='Wood Floor_RAMP_Q', T=60.92, F=0.54/
&RAMP ID='Wood Floor_RAMP_Q', T=91.81, F=0.40600/
&RAMP ID='Wood Floor_RAMP_Q', T=127.72, F=0.40/
&RAMP ID='Wood Floor_RAMP_Q', T=171.96, F=0.3900/
&RAMP ID='Wood Floor_RAMP_Q', T=241.78, F=0.3600/
&RAMP ID='Wood Floor_RAMP_Q', T=323.44, F=0.3500/
&RAMP ID='Wood Floor_RAMP_Q', T=376.20, F=0.3300/
&RAMP ID='Wood Floor_RAMP_Q', T=442.49, F=0.3300/
&RAMP ID='Wood Floor_RAMP_Q', T=522.44, F=0.3200/
! ... 9 like lines cut
&SURF ID='Tile',
 TEXTURE_MAP='tantile.jpg',
 TEXTURE_WIDTH=0.1000,
 TEXTURE_HEIGHT=0.1000/
&SURF ID='Carpet',
 RGB=153,102,0,
 TEXTURE_MAP='creamcarpet.jpg',
 MATL_ID(1,1)='Carpet',
 MATL_MASS_FRACTION(1,1)=1.00,
 THICKNESS(1)=6.00E-3/
&SURF ID='Concrete',
 COLOR='GRAY 80'/
&SURF ID='Wood Joists',
 RGB=168,96,0,
 HRRPUA=181.39,
 RAMP_Q='Wood Joists_RAMP_Q',
 IGNITION_TEMPERATURE=384.00,
 BACKING='EXPOSED',
 MATL_ID(1,1)='DougFir',
 MATL_MASS_FRACTION(1,1)=1.00,
 THICKNESS(1)=0.0380/
&RAMP ID='Wood Joists_RAMP_Q', T=0.00, F=0.00/
&RAMP ID='Wood Joists_RAMP_Q', T=0.1000, F=0.00/
&RAMP ID='Wood Joists_RAMP_Q', T=0.3800, F=0.3600/
&RAMP ID='Wood Joists_RAMP_Q', T=1.61, F=0.69/
&RAMP ID='Wood Joists_RAMP_Q', T=2.52, F=0.94/
&RAMP ID='Wood Joists_RAMP_Q', T=8.19, F=1.00/
&RAMP ID='Wood Joists_RAMP_Q', T=10.11, F=0.94/
&RAMP ID='Wood Joists_RAMP_Q', T=15.38, F=0.89/
&RAMP ID='Wood Joists_RAMP_Q', T=20.72, F=0.83/
&RAMP ID='Wood Joists_RAMP_Q', T=22.83, F=0.72/
&RAMP ID='Wood Joists_RAMP_Q', T=38.51, F=0.62/
&RAMP ID='Wood Joists_RAMP_Q', T=60.92, F=0.54/
&RAMP ID='Wood Joists_RAMP_Q', T=91.81, F=0.40600/
&RAMP ID='Wood Joists_RAMP_Q', T=127.72, F=0.40/
&RAMP ID='Wood Joists_RAMP_Q', T=171.96, F=0.3900/
&RAMP ID='Wood Joists_RAMP_Q', T=241.78, F=0.3600/
&RAMP ID='Wood Joists_RAMP_Q', T=323.44, F=0.3500/
&RAMP ID='Wood Joists_RAMP_Q', T=376.20, F=0.3300/
&RAMP ID='Wood Joists_RAMP_Q', T=442.49, F=0.3300/
&RAMP ID='Wood Joists_RAMP_Q', T=522.44, F=0.3200/
! ... 9 like lines cut
&SURF ID='INTERIORDOOR',
 RGB=146,202,166,
 HRRPUA=181.39,
 RAMP_Q='INTERIORDOOR_RAMP_Q',
 IGNITION_TEMPERATURE=384.00,
 MATL_ID(1,1)='DougFir',
 MATL_MASS_FRACTION(1,1)=1.00,
 THICKNESS(1)=5.00E-3/
&RAMP ID='INTERIORDOOR_RAMP_Q', T=0.00, F=0.00/
&RAMP ID='INTERIORDOOR_RAMP_Q', T=0.1000, F=0.00/
&RAMP ID='INTERIORDOOR_RAMP_Q', T=0.3800, F=0.3600/
&RAMP ID='INTERIORDOOR_RAMP_Q', T=1.61, F=0.69/
&RAMP ID='INTERIORDOOR_RAMP_Q', T=2.52, F=0.94/
&RAMP ID='INTERIORDOOR_RAMP_Q', T=8.19, F=1.00/
&RAMP ID='INTERIORDOOR_RAMP_Q', T=10.11, F=0.94/
&RAMP ID='INTERIORDOOR_RAMP_Q', T=15.38, F=0.89/
&RAMP ID='INTERIORDOOR_RAMP_Q', T=20.72, F=0.83/
&RAMP ID='INTERIORDOOR_RAMP_Q', T=22.83, F=0.72/
&RAMP ID='INTERIORDOOR_RAMP_Q', T=38.51, F=0.62/
&RAMP ID='INTERIORDOOR_RAMP_Q', T=60.92, F=0.54/
&RAMP ID='INTERIORDOOR_RAMP_Q', T=91.81, F=0.40600/
&RAMP ID='INTERIORDOOR_RAMP_Q', T=127.72, F=0.40/
&RAMP ID='INTERIORDOOR_RAMP_Q', T=171.96, F=0.3900/
&RAMP ID='INTERIORDOOR_RAMP_Q', T=241.78, F=0.3600/
&RAMP ID='INTERIORDOOR_RAMP_Q', T=323.44, F=0.3500/
&RAMP ID='INTERIORDOOR_RAMP_Q', T=376.20, F=0.3300/
&RAMP ID='INTERIORDOOR_RAMP_Q', T=442.49, F=0.3300/
&RAMP ID='INTERIORDOOR_RAMP_Q', T=522.44, F=0.3200/
! ... 9 like lines cut
&SURF ID='Wind',
 RGB=51,51,204,
 VEL=-4. 47,
 POROUS=.TRUE./
&DEVC ID='HRR', QUANTITY='HRR', XB=-1.60,33.90,0.2000,18.60,2.50,6.00/
&DEVC ID='TwallCouch2', QUANTITY='WALL TEMPERATURE', XYZ=18.30,13.10,0.60, IOR=-2, SETPOINT=265.00/
&DEVC ID='TwallDen', QUANTITY='WALL TEMPERATURE', XYZ=20.20, 8.10,3.20, IOR=-1/
&DEVC ID='TIMER', QUANTITY='TIME', XYZ=0.00,0.00,0.00, SETPOINT=800.00, INITIAL_STATE=.TRUE./
&DEVC ID='TIMER2', QUANTITY='TIME', XYZ=0.00,0.00,0.00, SETPOINT=590.00, INITIAL_STATE=.TRUE./
&DEVC ID='TIMER22', QUANTITY='TIME', XYZ=0.00,0.00,0.00, SETPOINT=860.00, INITIAL_STATE=.TRUE./
&DEVC ID='TIMER3', QUANTITY='TIME', XYZ=0.00,0.00,0.00, SETPOINT=855.00, INITIAL_STATE=.TRUE./
&DEVC ID='TIMER4', QUANTITY='TIME', XYZ=0.00,0.00,0.00, SETPOINT=720.00, INITIAL_STATE=.TRUE./
&DEVC ID='TIMER5', QUANTITY='TIME', XYZ=0.00,0.00,0.00, SETPOINT=500.00, INITIAL_STATE=.TRUE./
&OBST XB=20.20,20.50,4.40,5.20,2.40,2.50, RGB=51,51,255, PERMIT_HOLE=.FALSE., SURF_IDS='Attic Gypsum','Ceiling Gypsum','Ceiling
Gypsum', DEVC_ID='TIMER'/ Ceiling_RoofPunch
&OBST XB=20.80,21.10,4.40,5.20,2.40,2.50, RGB=51,51,255, PERMIT_HOLE=.FALSE., SURF_IDS='Attic Gypsum','Ceiling Gypsum','Ceiling
Gypsum', DEVC_ID='TIMER'/ Ceiling_RoofPunch
&OBST XB=20.30,21.50,13.60,17.40,2.40,2.50, SURF_ID='Attic Gypsum'/ Ceiling
&OBST XB=23.70,24.20,6.50,7.00,2.40,2.50, PERMIT_HOLE=.FALSE., SURF_IDS='Attic Burner','INERT','Closet Burner'/ Ceiling_Burner
&OBST XB=21.70,22.40,7.40,8.10,2.40,2.50, COLOR='BLUE', PERMIT_HOLE=.FALSE., SURF_IDS='Attic Gypsum','Gypsum','Gypsum',
DEVC_ID='TIMER'/ Ceiling_E36 Pull
&OBST XB=22.60,24.90,5.60,7.80,2.40,2.50, SURF_IDS='Attic Gypsum','Ceiling Gypsum','Closet Walls'/ Ceiling_Closet
&OBST XB=21.50,22.60,3.40,7.80,2.40,2.50, SURF_IDS='Attic Gypsum','Ceiling Gypsum','Ceiling Gypsum'/ Ceiling_Default
&OBST XB=22.60,24.90,3.40,5.60,2.40,2.50, SURF_IDS='Attic Gypsum','Ceiling Gypsum','Ceiling Gypsum'/ Ceiling_Default
&OBST XB=30.80,33.40,0.40,4.70,2.40,2.50, SURF_ID6='Gypsum','Gypsum','Roof Sheathing','Wood Joists02','Ceiling Gypsum','Attic
Gypsum'/ Ceiling_Default1
&OBST XB=30.80,33.30,7.60,9.80,2.00,2.10, SURF_ID6='Gypsum','Gypsum','Wood Joists02','Roof Sheathing','Ceiling Gypsum','Attic
Gypsum'/ Ceiling_Default2
&OBST XB=24.90,30.80,0.40,17.40,2.40,2.50, SURF_ID6='Gypsum','Roof Sheathing','Gypsum','Roof Sheathing','Ceiling Gypsum','Attic
Gypsum'/ Ceiling_Default3
&OBST XB=21.50,24.90,7.80,17.40,2.40,2.50, SURF_ID6='Gypsum','Gypsum','Gypsum','Roof Sheathing','Ceiling Gypsum','Attic Gypsum'/
Ceiling_Default4
&OBST XB=20.20,21.50,2.10,13.60,2.40,2.50, SURF_ID6='Gypsum','Gypsum','Gypsum','Roof Sheathing','Ceiling Gypsum','Attic Gypsum'/
Ceiling_Default5
&OBST XB=15.30,20.20,2.10,7.70,2.40,2.50, SURF_IDS='Attic Gypsum','Gypsum','Ceiling Gypsum'/ Ceiling_Default6
&OBST XB=2.60,15.30,2.10,12.10,2.40,2.50, SURF_IDS='Attic Gypsum','Gypsum','Ceiling Gypsum'/ Ceiling_Default7
&OBST XB=2.60,15.30,12.10,15.00,2.40,2.50, SURF_ID6='Roof Sheathing','Wood Joists02','Gypsum','Roof Sheathing','Ceiling
Gypsum','Attic Gypsum'/ Ceiling_Default8
&OBST XB=0.2000,2.60,2.10,12.10,2.40,2.50, SURF_ID6='Wood Joists02','Gypsum','Gypsum','Roof Sheathing','Ceiling Gypsum','Attic
Gypsum'/ Ceiling_Default9
&OBST XB=15.30,20.30,11.60,12.00,2.50,2.60, SURF_IDS='Attic Gypsum','Gypsum','Ceiling Gypsum'/ Ceiling_LivRm_Vaulted1
&OBST XB=15.30,20.30, 11.20,11.60,2.60,2.70, SURF_IDS='Attic Gypsum','Gypsum','Ceiling Gypsum'/ Ceiling_LivRm_Vaulted2
&OBST XB=15.30,20.30,10.80,11.20,2.70,2.80, SURF_IDS='Attic Gypsum','Gypsum','Ceiling Gypsum'/ Ceiling_LivRm_Vaulted3
&OBST XB=15.30,20.30,10.400,10.80,2.80,2. 90, SURF_IDS='Attic Gypsum','Gypsum','Ceiling Gypsum'/ Ceiling_LivRm_Vaulted4
&OBST XB=15.30,20.30,10.00,10.400,2.90,3.00, SURF_IDS='Attic Gypsum','Gypsum','Ceiling Gypsum'/ Ceiling_LivRm_Vaulted5
&OBST XB=15.30,20.30,9.60,10.00,3.00,3.10, SURF_IDS='Attic Gypsum','Gypsum','Ceiling Gypsum'/ Ceiling_LivRm_Vaulted6
&OBST XB=15.30,20.30,9.20,9.60,3.10,3.20, SURF_IDS='Attic Gypsum','Gypsum','Ceiling Gypsum'/ Ceiling_LivRm_Vaulted7
&OBST XB=15.30,20.30,8.80,9.20,3.20,3.30, SURF_IDS='Attic Gypsum','Gypsum','Ceiling Gypsum'/ Ceiling_LivRm_Vaulted8
&OBST XB=15.30,20.30,8.40,8.80,3.30,3.40, SURF_IDS='Attic Gypsum','Gypsum','Ceiling Gypsum'/ Ceiling_LivRm_Vaulted9
&OBST XB=15.30,20.30,8.00,8.40,3.40,3.50, SURF_IDS='Attic Gypsum','Gypsum','Ceiling Gypsum'/ Ceiling_LivRm_Vaulted10
&OBST XB=15.30,20.30,7.60,8.00,3.50,3.60, SURF_IDS='Attic Gypsum','Gypsum','Ceiling Gypsum'/ Ceiling_LivRm_Vaulted11
&OBST XB=15.20,20.30,7.60,7.70,2.50,3.60, SURF_IDS='Attic Gypsum','Gypsum','Ceiling Gypsum'/ Ceiling_LivRm_Vaulted12
&OBST XB=15.20,15.30,7.70,11.20,2.50,2.80, SURF_IDS='Attic Gypsum','Gypsum','Ceiling Gypsum'/ Ceiling_LivRm_VaultedB1
&OBST XB=15.20,15.30,7.70,10.80,2.80,2.90, SURF_IDS='Attic Gypsum','Gypsum','Ceiling Gypsum'/ Ceiling_LivRm_VaultedB2
&OBST XB=15.20,15.30,7.70,10.400,2.90,3.00, SURF_IDS='Attic Gypsum','Gypsum','Ceiling Gypsum'/ Ceiling_LivRm_VaultedB3
&OBST XB=15.20,15.30,7.70,10.00,3.00,3.10, SURF_IDS='Attic Gypsum','Gypsum','Ceiling Gypsum'/ Ceiling_LivRm_VaultedB4
&OBST XB=15.20,15.30,7.70, 9.60,3.10,3.20, SURF_IDS='Attic Gypsum','Gypsum','Ceiling Gypsum'/ Ceiling_LivRm_VaultedB5
&OBST XB=15.20,15.30,7.70,9.20,3.20,3.30, SURF_IDS='Attic Gypsum','Gypsum','Ceiling Gypsum'/ Ceiling_LivRm_VaultedB6
&OBST XB=15.20,15.30,7.70,8.80,3.30,3.40, SURF_IDS='Attic Gypsum','Gypsum','Ceiling Gypsum'/ Ceiling_LivRm_VaultedB7
&OBST XB=15.20,15.30,7.70,8.40,3.40,3.50, SURF_IDS='Attic Gypsum','Gypsum','Ceiling Gypsum'/ Ceiling_LivRm_VaultedB8
&OBST XB=15.20,15.30,7.70,8.00,3.50,3.60, SURF_IDS='Attic Gypsum','Gypsum','Ceiling Gypsum'/ Ceiling_LivRm_VaultedB9
&OBST XB=20.20,20.30,7.70,13.60,2.50,2.70, SURF_IDS='Attic Gypsum','Gypsum','Ceiling Gypsum', DEVC_ID='TIMER2'/
Ceiling_LivRm_VaultedD1
&OBST XB=20.20,20.30,7.70,11.20,2.70,2.80, SURF_IDS='Attic Gypsum','Gypsum','Ceiling Gypsum', DEVC_ID='TIMER2'/
Ceiling_LivRm_VaultedD2
&OBST XB=20.20,20.30,7.70,10.80,2.80,2.90, SURF_IDS='Attic Gypsum','Gypsum','Ceiling Gypsum', DEVC_ID='TIMER2'/
Ceiling_LivRm_VaultedD3
&OBST XB=20.20,20.30,7.70,10.400,2.90,3.00, SURF_IDS='Attic Gypsum','Gypsum','Ceiling Gypsum', DEVC_ID='TIMER2'/
Ceiling_LivRm_VaultedD4
&OBST XB=20.20,20.30,7.70,10.00,3.00,3.10, SURF_IDS='Attic Gypsum','Gypsum','Ceiling Gypsum', DEVC_ID='TIMER2'/
Ceiling_LivRm_VaultedD5
&OBST XB=20.20,20.30,7.70,9.60,3.10,3.20, SURF_IDS='Attic Gypsum','Gypsum','Ceiling Gypsum', DEVC_ID='TIMER2'/
Ceiling_LivRm_VaultedD6
&OBST XB=20.20,20.30,7.70,9.20,3.20,3.30, SURF_IDS='Attic Gypsum','Gypsum','Ceiling Gypsum', DEVC_ID='TIMER2'/
Ceiling_LivRm_VaultedD7
&OBST XB=20.20,20.30,7.70, 8.80,3.30,3.40, SURF_IDS='Attic Gypsum','Gypsum','Ceiling Gypsum', DEVC_ID='TIMER2'/
Ceiling_LivRm_VaultedD8
&OBST XB=20.20,20.30,7.70,8.40,3.40,3.50, SURF_IDS='Attic Gypsum','Gypsum','Ceiling Gypsum', DEVC_ID='TIMER2'/
Ceiling_LivRm_VaultedD9
&OBST XB=20. 20,20.30,7.70,8.00,3.50,3.60, SURF_IDS='Attic Gypsum','Gypsum','Ceiling Gypsum', DEVC_ID='TIMER2'/
Ceiling_LivRm_VaultedD10
&OBST XB=15.30,20.20,12.00,13.50,2.40,2.50, SURF_IDS='Attic Gypsum','Gypsum','Ceiling Gypsum'/ Ceiling_LivRm_Vaulted1[1]
&OBST XB=30.80,32.30,1.00,1.10,2.50,2.70, SURF_ID='Wood Joists02'/ RafterBathAdd1
&OBST XB=32.30,33.60,1.00,1.10,2.50,2.70, SURF_ID='Wood Joists02'/ RafterBathAdd1
&OBST XB=33.10,33.30,1.00,1.10,2.80,2.90, SURF_ID='Wood Joists02'/ RafterBathAdd1
&OBST XB=33.00,33.20,1.00,1.10,2.90,3.00, SURF_ID='Wood Joists02'/ RafterBathAdd1
&OBST XB=32.90,33.10,1.00,1.10,3.00,3.10, SURF_ID='Wood Joists02'/ RafterBathAdd1
&OBST XB=32.80,33.00,1.00,1.10,3.10,3.20, SURF_ID='Wood Joists02'/ RafterBathAdd1
&OBST XB=32.70,32.90,1.00,1.10,3.20,3.30, SURF_ID='Wood Joists02'/ RafterBathAdd1
&OBST XB=32.60,32.80,1.00,1.10,3.30,3.40, SURF_ID='Wood Joists02'/ RafterBathAdd1
&OBST XB=32.50,32.70,1.00,1.10,3.40,3.50, SURF_ID='Wood Joists02'/ RafterBathAdd1
&OBST XB=32.40,32.60,1.00, 1.10,3.50,3.60, SURF_ID='Wood Joists02'/ RafterBathAdd1
&OBST XB=32.30,32.50,1.00,1.10,3.60,3.70, SURF_ID='Wood Joists02'/ RafterBathAdd1
&OBST XB=32.30,32.40,1.00,1.10,3.70,3.80, SURF_ID='Wood Joists02'/ RafterBathAdd1
&OBST XB=31.10,31.30,1.01,1.11,2.70, 2.80, SURF_ID='Wood Joists02'/ RafterBathAdd1
&OBST XB=33.20,33.40,1.00,1.10,2.70,2.80, SURF_ID='Wood Joists02'/ RafterBathAdd1
&OBST XB=31.20,31.40,1.01,1.11,2.80,2.90, SURF_ID='Wood Joists02'/ RafterBathAdd1
&OBST XB=31.30,31.50,1.01,1.11,2.90,3.00, SURF_ID='Wood Joists02'/ RafterBathAdd1
&OBST XB=31.40,31.60,1.01,1.11,3.00,3.10, SURF_ID='Wood Joists02'/ RafterBathAdd1
&OBST XB=31.50,31.70,1.01,1.11,3.10,3.20, SURF_ID='Wood Joists02'/ RafterBathAdd1
&OBST XB=31.60,31.80,1.01,1.11,3.20,3.30, SURF_ID='Wood Joists02'/ RafterBathAdd1
&OBST XB=31.70,31.90,1.01,1.11,3.30,3.40, SURF_ID='Wood Joists02'/ RafterBathAdd1
! ... 168 like lines cut
&OBST XB=8.30,25.30,6.20,6.30,3.90,4.10, SURF_ID='Wood Joists02'/ RafterRidge1
&OBST XB=4.40,7.90,6.20,6.30,3.90,4.10, SURF_ID=' Wood Joists02'/ RafterRidge2
&OBST XB=29.90,30.30,0.60,0.70,2.70,2.80, SURF_ID='Wood Joists02'/ RafterD1
&OBST XB=29.70,29.90,0.60,0.70,2.80,2.90, SURF_ID='Wood Joists02'/ RafterD1
&OBST XB=29.90,30.30,1.00,1.10,2.70,2.80, SURF_ID='Wood Joists02'/ RafterD2
&OBST XB=29.50,30.10,1.00,1.10,2.80,2.90, SURF_ID='Wood Joists02'/ RafterD2
&OBST XB=29.10,29.50,1.00,1.10,2.90,3.00, SURF_ID='Wood Joists02'/ RafterD2
&OBST XB=28.50,28.70,1.60,1.70,3.10,3.20, SURF_ID='Wood Joists02'/ RafterD3
&OBST XB=29.50,30.10,1.60,1.70,2.80,2.90, SURF_ID='Wood Joists02'/ RafterD3
&OBST XB=29.10,29.50,1.60,1.70,2.90,3.00, SURF_ID='Wood Joists02'/ RafterD3
&OBST XB=28.70,29.10,1.60,1.70,3.00,3.10, SURF_ID='Wood Joists02'/ RafterD3
&OBST XB=29.90,30.30,1.60,1.70,2.70,2.80, SURF_ID='Wood Joists02'/ RafterD3
&OBST XB=29.50,30.10,2.20,2.30,2.80,2.90, SURF_ID='Wood Joists02'/ RafterD4
&OBST XB=29.10,29.50,2.20,2.30,2.90,3.00, SURF_ID='Wood Joists02'/ RafterD4
&OBST XB=28.70,29.10,2.20,2.30,3.00,3.10, SURF_ID='Wood Joists02'/ RafterD4
&OBST XB=28.30,28.70,2.20,2.30,3.10,3.20, SURF_ID='Wood Joists02'/ RafterD4
&OBST XB=27.90,28.30,2.20,2.30,3.20,3.30, SURF_ID='Wood Joists02'/ RafterD4
&OBST XB=29.90,30.30,2.20,2.30,2.70,2.80, SURF_ID='Wood Joists02'/ RafterD4
&OBST XB=29.50,30.10,2.80,2.90,2.80,2.90, SURF_ID='Wood Joists02'/ RafterD5
&OBST XB=29.10,29.50,2.80,2.90,2.90,3.00, SURF_ID='Wood Joists02'/ RafterD5
&OBST XB=28.70,29.10,2.80,2.90,3.00,3.10, SURF_ID='Wood Joists02'/ RafterD5
&OBST XB=28.30,28.70,2.80,2.90,3.10,3.20, SURF_ID='Wood Joists02'/ RafterD5
! ... 101 like lines cut
&OBST XB=-0.40, -0.2000,10.80,10.90,2.80,2.90, SURF_ID='Wood Joists02'/ RafterB16
&OBST XB=-0.80, -0.40,10.80,10.90,2.70,2.80, SURF_ID='Wood Joists02'/ RafterB16
&OBST XB=0.0,0.40,10.00,10.10,2.90,3.00, SURF_ID='Wood Joists02'/ RafterB15
&OBST XB=-0.40,0.0,10.00,10.10,2.80,2.90, SURF_ID='Wood Joists02'/ RafterB15
&OBST XB=-0.80, -0.40,10.00,10.10,2.70,2.80, SURF_ID='Wood Joists02'/ RafterB15
&OBST XB=0.40,0.80,9.40,9.50,3.00,3.10, SURF_ID='Wood Joists02'/ RafterB14
&OBST XB=0.0,0.40,9.40,9.50,2.90,3.00, SURF_ID='Wood Joists02'/ RafterB14
&OBST XB=-0.40,0.0,9.40,9.50,2.80,2.90, SURF_ID='Wood Joists02'/ RafterB14
&OBST XB=0. 80,1.00,9.40,9.50,3.10,3.20, SURF_ID='Wood Joists02'/ RafterB14
&OBST XB=-0.80, -0.40,9.40,9.50,2.70,2.80, SURF_ID='Wood Joists02'/ RafterB14
&OBST XB=1.20,1.60,8.80,8.90,3.20,3.30, SURF_ID='Wood Joists02'/ RafterB13
&OBST XB=0.80,1.20,8.80,8.90,3.10,3.20, SURF_ID='Wood Joists02'/ RafterB13
&OBST XB=0.40,0.80,8.80,8.90,3.00,3.10, SURF_ID='Wood Joists02'/ RafterB13
&OBST XB=0.0,0.40,8.80,8.90,2.90,3.00, SURF_ID='Wood Joists02'/ RafterB13
&OBST XB=-0.40,0.0,8.80,8.90,2.80,2.90, SURF_ID='Wood Joists02'/ RafterB13
&OBST XB=-0.80, -0.40,8.80,8.90,2.70,2.80, SURF_ID='Wood Joists02'/ RafterB13
&OBST XB=2.00,2.20,8.20,8.30,3.40,3.50, SURF_ID='Wood Joists02'/ RafterB12
&OBST XB=1.60,2.00,8.20,8.30,3.30,3.40, SURF_ID='Wood Joists02'/ RafterB12
&OBST XB=1.20,1.60,8.20,8. 30,3.20,3.30, SURF_ID='Wood Joists02'/ RafterB12
&OBST XB=0.80,1.20,8.20,8.30,3.10,3.20, SURF_ID='Wood Joists02'/ RafterB12
! ... 92 like lines cut
&OBST XB=30.30,30.400, -0.50,17.40,2.50,2.70, SURF_ID='Wood Joists02'/ Rafter-8
&OBST XB=29.60,29.70, -0.1,0.3,2.70,2.80, SURF_ID='Wood Joists02'/ Rafter-7
&OBST XB=29.60,29.70,0.3,0.70,2.80,2.90, SURF_ID='Wood Joists02'/ Rafter-7
&OBST XB=29.60,29.70, -0.50,17.40,2.50,2.70, SURF_ID='Wood Joists02'/ Rafter-7
&OBST XB=29.60,29.70,11.20,11.60,2.70,2.80, SURF_ID='Wood Joists02'/ Rafter-7
&OBST XB=29.60,29.70,10.80,11.20,2.80,2.90, SURF_ID='Wood Joists02'/ Rafter-7
&OBST XB=29.00,29.10, -0.1,0.3,2.70,2.80, SURF_ID='Wood Joists02'/ Rafter-6
&OBST XB=29.00,29.10,0.3,0.70,2.80,2.90, SURF_ID='Wood Joists02'/ Rafter-6
&OBST XB=29.00,29.10,0.70,1.10,2.90,3.00, SURF_ID='Wood Joists02'/ Rafter-6
&OBST XB=29.00,29.10, -0.50,17.40,2.50,2.70, SURF_ID='Wood Joists02'/ Rafter-6
&OBST XB=29.00,29.10,11.20,11.60,2.70,2.80, SURF_ID='Wood Joists02'/ Rafter-6
&OBST XB=29.00,29.10,10.80,11.20,2.80,2.90, SURF_ID='Wood Joists02'/ Rafter-6
&OBST XB=29.00,29.10,10.400,10.80,2.90,3.00, SURF_ID='Wood Joists02'/ Rafter-6
&OBST XB=29.00,29.10,10.00,10.400,3.00,3.10, SURF_ID='Wood Joists02'/ Rafter-6
&OBST XB=28.40,28.50, -0.1,0.3,2.70,2.80, SURF_ID='Wood Joists02'/ Rafter-5
&OBST XB=28.40,28.50,0.3,0.70,2.80,2.90, SURF_ID='Wood Joists02'/ Rafter-5
&OBST XB=28.40,28.50,0.70,1.10,2.90,3.00, SURF_ID='Wood Joists02'/ Rafter-5
&OBST XB=28.40,28.50,1.10,1.50,3.00,3.10, SURF_ID='Wood Joists02'/ Rafter-5
&OBST XB=28.40,28.50,1.50,1.70,3.10,3.20, SURF_ID='Wood Joists02'/ Rafter-5
&OBST XB=28.40,28.50, -0.50,17.40,2.50,2.70, SURF_ID='Wood Joists02'/ Rafter-5
! ... 1170 like lines cut
&OBST XB=11.70,11.80,8.90,9.90,2.50,3.50, SURF_ID6='Roof Sheathing','Gypsum','Roof Sheathing','Roof Sheathing','Roof
Sheathing','Roof Sheathing'/ Skylight Assembly
&OBST XB=11.70,12.90,8.80,8.89,2.50,3.60, SURF_ID6='Roof Sheathing','Roof Sheathing','Roof Sheathing','Gypsum','Roof
Sheathing','Roof Sheathing'/ Skylight Assembly
&OBST XB=12.80,12.90,8.90,9.90,2.50,3.39, SURF_ID6='Gypsum','Roof Sheathing','Roof Sheathing','Roof Sheathing','Roof
Sheathing','Roof Sheathing'/ Skylight Assembly
&OBST XB=11.70,12.90,9.90,10.00,2.50,3.39, SURF_ID6='Roof Sheathing','Roof Sheathing','Gypsum','Roof Sheathing','Roof
Sheathing','Roof Sheathing'/ Skylight Assembly
&OBST XB=11.80,12.80,8.90,9.90,3.40,3.50, COLOR='BLACK', PERMIT_HOLE=.FALSE., SURF_ID='Overhang Matl'/ Skylight Assembly
&OBST XB=23.00,23.70,8.90,10. 20,3.60,3.70, PERMIT_HOLE=.FALSE., SURF_ID='Glass'/ Skylight Glass
&OBST XB=23.00,23.70,10.20,10.30,2.50,3.60, PERMIT_HOLE=.FALSE., SURF_ID='Gypsum'/ Skylight1
&OBST XB=23.70,23.80,9.00,10.30,2.50,3.70, PERMIT_HOLE=.FALSE., SURF_ID='Gypsum'/ Skylight2
&OBST XB=22.90,23.00,9.00,10.30,2.50,3.50, PERMIT_HOLE=.FALSE., SURF_ID='Gypsum'/ Skylight3
&OBST XB=22.90,23.80,8.90,9.00,2.50,3.60, PERMIT_HOLE=.FALSE., SURF_ID='Gypsum'/ Skylight4
&OBST XB=24.90,30.80, -0.60,0.40,2.40,2.50, RGB=153,102,0, SURF_ID='Overhang Matl'/ Roof_Overhang A1
&OBST XB=21.50,24.90,2.10,3.40,2.40,2.50, RGB=153,102,0, SURF_ID='Overhang Matl'/ Roof_Overhang A2
&OBST XB=20.20,24.90,0.40,2.10,2.40,2.50, RGB=153,102,0, SURF_ID='Overhang Matl'/ Roof_Overhang A3
&OBST XB=2.60,20.20,0.40,2.10,2.40, 2.50, RGB=153,102,0, SURF_ID='Overhang Matl'/ Roof_Overhang A4
&OBST XB=0.2000,2.60,0.40,2.10,2.40,2.50, RGB=153,102,0, SURF_ID='Overhang Matl'/ Roof_Overhang A5
&OBST XB=-1.30,0.2000,0.40,12.10,2.40,2.50, RGB=153,102,0, SURF_ID='Overhang Matl'/ Roof_Overhang B1
&OBST XB=20.20,30.80,17.40,18.50,2.40,2.50, RGB=153,102,0, SURF_ID='Overhang Matl'/ Roof_Overhang
&OBST XB=2.60,15.30,15.00,16.50,2.40,2.50, RGB=153,102,0, SURF_ID='Overhang Matl'/ Roof_Overhang
&OBST XB=23.00,24.60,5.90,6.00,4.00,4.10, PERMIT_HOLE=.FALSE., SURF_IDS='Overhang Matl','Roof Sheathing','Roof Sheathing02'/ Roof
Sheathing
&OBST XB=24.60,24.80,6.00,6.50,4.10,4.20, PERMIT_HOLE=.FALSE., SURF_IDS='Overhang Matl','Roof Sheathing','Roof Sheathing'/ Roof
Sheathing
&OBST XB=24.60,24.80,5.60,6.00,4.00,4.10, PERMIT_HOLE=.FALSE., SURF_IDS='Overhang Matl','Roof Sheathing','Roof Sheathing'/ Roof
Sheathing
&OBST XB=23.00,24.60,5.60,5.90,4.00,4.10, PERMIT_HOLE=.FALSE., SURF_IDS='Overhang Matl','Roof Sheathing','Roof Sheathing02'/ Roof
Sheathing
&OBST XB=24.60,24.80,6.90,7.30,3.90,4.00, PERMIT_HOLE=.FALSE., SURF_ID='Roof Sheathing'/ Roof Sheathing
&OBST XB=24.60,24.80,6.50,6.90,4.00,4.10, PERMIT_HOLE=.FALSE., SURF_IDS='Overhang Matl','Roof Sheathing','Roof Sheathing'/ Roof
Sheathing
&OBST XB=23.00,24.60,7.30,7.70,3.80,3.90, PERMIT_HOLE=.FALSE., SURF_IDS='Overhang Matl','Roof Sheathing','Roof Sheathing'/ Roof
Sheathing
&OBST XB=23.00,24.60,6.90,7.30,3.90,4.00, PERMIT_HOLE=.FALSE., SURF_IDS='Overhang Matl','Roof Sheathing','Roof Sheathing'/ Roof
Sheathing
&OBST XB=23.00,24.60,6.50,6.90,4.00,4.10, PERMIT_HOLE=.FALSE., SURF_IDS='Overhang Matl','Roof Sheathing','Roof Sheathing02'/ Roof
Sheathing
&OBST XB=14.80,29.90,12.80,13.70,2.70,2.80, SURF_IDS='Overhang Matl','Roof Sheathing','Roof Sheathing'/ Roof_Sheathing
&OBST XB=13.80,29.50,10.90,11.80,2.90,3.00, SURF_IDS='Overhang Matl','Roof Sheathing','Roof Sheathing'/ Roof_Sheathing
&OBST XB=-0.80,2.60,11.70,12.10,2.70,2.80, SURF_IDS='Overhang Matl','Roof Sheathing','Roof Sheathing'/ Roof_Sheathing
&OBST XB=-0.90,3.10,11.60,12.00,2.80,2.90, SURF_IDS='Overhang Matl','Roof Sheathing','Roof Sheathing'/ Roof_Sheathing
&OBST XB=2.60,3.10,11.90,12.10,2.80,2.90, SURF_IDS='Overhang Matl','Roof Sheathing','Roof Sheathing'/ Roof_Sheathing
&OBST XB=19.90,21.30,5.20,5.40, 3.90,4.00, PERMIT_HOLE=.FALSE., SURF_IDS='Overhang Matl','Roof Sheathing','Roof Sheathing',
DEVC_ID='TIMER'/ Roof Hole Fix
&OBST XB=19.90,21.30,4.80,5.20,3.80,3.90, PERMIT_HOLE=.FALSE., SURF_IDS='Overhang Matl','Roof Sheathing','Roof Sheathing',
DEVC_ID='TIMER'/ Roof Hole Fix
&OBST XB=19.90,21.30,4.40,4.80,3.70,3.80, PERMIT_HOLE=.FALSE., SURF_IDS='Overhang Matl','Roof Sheathing','Roof Sheathing',
DEVC_ID='TIMER'/ Roof Hole Fix
&OBST XB=19.90,21.30,4.20,4.40,3.60,3.70, PERMIT_HOLE=.FALSE., SURF_IDS='Overhang Matl','Roof Sheathing','Roof Sheathing',
DEVC_ID='TIMER'/ Roof Hole Fix
&OBST XB=-0.1,24.90,1.60,2.10,3.00,3.10, SURF_IDS='Overhang Matl','Roof Sheathing','Roof Sheathing'/ Roof_Sheathing_Main
&OBST XB=1.10,25.00,2.80,3.30,3.30,3.40, SURF_IDS='Overhang Matl','Roof Sheathing','Roof Sheathing'/ Roof_Sheathing_Main
&OBST XB=1.50,25.00,3.20,3.70,3.40,3.50, SURF_IDS='Overhang Matl','Roof Sheathing','Roof Sheathing'/ Roof_Sheathing_Main
&OBST XB=1.90,24.90,3.60,4.10,3.50,3.60, SURF_IDS='Overhang Matl','Roof Sheathing','Roof Sheathing'/ Roof_Sheathing_Main
&OBST XB=2.30,24.90,4.00,4.50,3.60,3.70, SURF_IDS='Overhang Matl','Roof Sheathing','Roof Sheathing'/ Roof_Sheathing_Main
&OBST XB=2.70,24.90,4.40,4.90,3.70,3.80, SURF_IDS='Overhang Matl','Roof Sheathing','Roof Sheathing'/ Roof_Sheathing_Main
&OBST XB=3.10,24.90,4.80,5.30,3.80,3.90, SURF_IDS='Overhang Matl','Roof Sheathing','Roof Sheathing'/ Roof_Sheathing_Main
&OBST XB=-0.90,24.90,0.80,1.30,2.80,2.90, SURF_IDS='Overhang Matl','Roof Sheathing','Roof Sheathing'/ Roof_Sheathing_Main
&OBST XB=-0.50,24.90,1.20,1.70,2.90,3.00, SURF_IDS='Overhang Matl','Roof Sheathing','Roof Sheathing'/ Roof_Sheathing_Main
&OBST XB=0.3,24.90,2.00,2.50,3.10,3.20, SURF_IDS='Overhang Matl','Roof Sheathing','Roof Sheathing'/ Roof_Sheathing_Main
&OBST XB=0.70,24.90,2.40,2.90,3.20,3.30, SURF_IDS='Overhang Matl','Roof Sheathing','Roof Sheathing'/ Roof_Sheathing_Main
&OBST XB=3.10,23.00,7.20,7.70,3.80,3.90, SURF_IDS='Overhang Matl','Roof Sheathing','Roof Sheathing'/ Roof_Sheathing_Main
&OBST XB=3.50,23.00,6.90,7.30,3.90,4.00, SURF_IDS='Overhang Matl','Roof Sheathing','Roof Sheathing'/ Roof_Sheathing_Main
&OBST XB=14.20,29.90,11.80,12.80,2.80,2.90, SURF_IDS='Overhang Matl','Roof Sheathing','Roof Sheathing'/ Roof_Sheathing_Main
&OBST XB=-0.50,4.10,10.90,11.60,2.90,3.00, SURF_IDS='Overhang Matl','Roof Sheathing','Roof Sheathing'/ Roof_Sheathing_Main
&OBST XB=-0.1,29.10,10.400,11.00,3.00,3.10, SURF_IDS='Overhang Matl','Roof Sheathing','Roof Sheathing'/ Roof_Sheathing_Main
&OBST XB=0.3,28.70,10.00,10. 50,3.10,3.20, SURF_IDS='Overhang Matl','Roof Sheathing','Roof Sheathing'/ Roof_Sheathing_Main
&OBST XB=0.70,28.50,9.60,10.10,3.20,3.30, SURF_IDS='Overhang Matl','Roof Sheathing','Roof Sheathing'/ Roof_Sheathing_Main
&OBST XB=1.10,27.90,9.20,9.70,3.30,3.40, SURF_IDS='Overhang Matl','Roof Sheathing','Roof Sheathing'/ Roof_Sheathing_Main
&OBST XB=1.50,27.50,8.80,9.30,3.40,3.50, SURF_IDS='Overhang Matl','Roof Sheathing','Roof Sheathing'/ Roof_Sheathing_Main
! ... 8 like lines cut
&OBST XB=22.40,24.60,6.00,6.50,4.10,4.20, SURF_IDS='Overhang Matl','Roof Sheathing','Roof Sheathing02'/ Roof_Sheathing_Main
&OBST XB=16.40,22.00,6.00,6.50,4.10,4.20, SURF_IDS='Overhang Matl','Roof Sheathing','Roof Sheathing'/ Roof_Sheathing_Main
&OBST XB=4.30,9.30,6.00,6.50,4.10,4.20, SURF_IDS='Overhang Matl','Roof Sheathing','Roof Sheathing'/ Roof_Sheathing_Main
&OBST XB=-0.90, -0.40,0.80,11.70,2.80,2.90, SURF_IDS='Overhang Matl','Roof Sheathing','Roof Sheathing'/ Roof_Sheathing_B
&OBST XB=-0.50,0.0,1.20,10.90,2.90,3.00, SURF_IDS='Overhang Matl','Roof Sheathing','Roof Sheathing'/ Roof_Sheathing_B
&OBST XB=-0.1,0.40,1.60,10.90,3.00,3.10, SURF_IDS='Overhang Matl','Roof Sheathing','Roof Sheathing'/ Roof_Sheathing_B
&OBST XB=0.3,0.80,2.00,10.50,3.10,3.20, SURF_IDS='Overhang Matl','Roof Sheathing','Roof Sheathing'/ Roof_Sheathing_B
&OBST XB=0.70,1.20,2.40,10.10,3.20,3.30, SURF_IDS='Overhang Matl','Roof Sheathing','Roof Sheathing'/ Roof_Sheathing_B
&OBST XB=1.50,2.00,3.20,9.30,3.40,3.50, SURF_IDS='Overhang Matl','Roof Sheathing','Roof Sheathing'/ Roof_Sheathing_B
&OBST XB=2.30,2.80,4.00,8.50,3.60,3.70, SURF_IDS='Overhang Matl','Roof Sheathing','Roof Sheathing'/ Roof_Sheathing_B
&OBST XB=1.90,2.40,3.60,8.90,3.50,3.60, SURF_IDS='Overhang Matl','Roof Sheathing','Roof Sheathing'/ Roof_Sheathing_B
&OBST XB=2.70,3.20,4.40,8.10,3.70,3.80, SURF_IDS='Overhang Matl','Roof Sheathing' ,'Roof Sheathing'/ Roof_Sheathing_B
&OBST XB=3.10,3.60,4.80,7.70,3.80,3.90, SURF_IDS='Overhang Matl','Roof Sheathing','Roof Sheathing'/ Roof_Sheathing_B
&OBST XB=3.50,4.00,5.20,7.30,3.90,4.00, SURF_IDS='Overhang Matl','Roof Sheathing','Roof Sheathing'/ Roof_Sheathing_B
&OBST XB=3.90,4.40,5.60,6.90,4.00,4.10, SURF_IDS='Overhang Matl','Roof Sheathing','Roof Sheathing'/ Roof_Sheathing_B
&OBST XB=1.10,1.60,2.80,9.70,3.30,3.40, SURF_IDS='Overhang Matl','Roof Sheathing','Roof Sheathing'/ Roof_Sheathing_B
&OBST XB=-1.30, -0.80,0.40,12.10,2.70,2.80, SURF_IDS='Overhang Matl','Roof Sheathing','Roof Sheathing'/ Roof_Sheathing_B
&OBST XB=24.80,25.00,4.60,5.20,3.90,4.00, SURF_IDS='Overhang Matl','Roof Sheathing','Roof Sheathing'/ Roof_Sheathing_D
&OBST XB=24.90,30.10,0.2000,0.70,2.90,3.00, SURF_IDS='Overhang Matl','Roof Sheathing','Roof Sheathing'/ Roof_Sheathing_D
&OBST XB=24.90,29.60,0.60,1.10,3.00,3.10, SURF_IDS='Overhang Matl','Roof Sheathing','Roof Sheathing'/ Roof_Sheathing_D
&OBST XB=24.90,29.20,1.00,1.50,3.10,3.20, SURF_IDS='Overhang Matl','Roof Sheathing','Roof Sheathing'/ Roof_Sheathing_D
&OBST XB=24.90,28.80,1.40,1.90,3.20,3.30, SURF_IDS='Overhang Matl','Roof Sheathing','Roof Sheathing'/ Roof_Sheathing_D
&OBST XB=24.90,28.40,1.80,2.30,3.30,3.40, SURF_IDS='Overhang Matl','Roof Sheathing','Roof Sheathing'/ Roof_Sheathing_D
&OBST XB=24.90,28.00,2.20,2.70,3.40,3.50, SURF_IDS='Overhang Matl','Roof Sheathing','Roof Sheathing'/ Roof_Sheathing_D
&OBST XB=24.90,27.60,2.60,3.10,3.50,3.60, SURF_IDS='Overhang Matl','Roof Sheathing','Roof Sheathing'/ Roof_Sheathing_D
&OBST XB=24.90,26.80,3.40,3.90,3.70,3.80, SURF_IDS='Overhang Matl','Roof Sheathing','Roof Sheathing'/ Roof_Sheathing_D
&OBST XB=24.90,26.40,3.80,4.30,3.80,3.90, SURF_IDS='Overhang Matl','Roof Sheathing','Roof Sheathing'/ Roof_Sheathing_D
&OBST XB=24.90,26.00,4.20,4.70,3.90,4.00, SURF_IDS='Overhang Matl','Roof Sheathing','Roof Sheathing'/ Roof_Sheathing_D
&OBST XB=24.90,30.80, -0.60, -0.1,2.70,2.80, SURF_IDS='Overhang Matl','Roof Sheathing','Roof Sheathing'/ Roof_Sheathing_D
&OBST XB=24.90,27.20,3.00,3.50,3.60,3.70, SURF_IDS='Overhang Matl','Roof Sheathing','Roof Sheathing'/ Roof_Sheathing_D
&OBST XB=24.80,25.20,4.60,5.70,4.00,4.10, SURF_IDS='Overhang Matl','Roof Sheathing','Roof Sheathing'/ Roof_Sheathing_D
&OBST XB=24.80,25.00,4.20,4.80,3.80,3.90, SURF_IDS='Overhang Matl','Roof Sheathing','Roof Sheathing'/ Roof_Sheathing_D
&OBST XB=24.80,25.00,3.80,4.40,3.70,3.80, SURF_IDS='Overhang Matl','Roof Sheathing','Roof Sheathing'/ Roof_Sheathing_D
&OBST XB=24.80,25.00,3.40,4.00,3.60,3.70, SURF_IDS='Overhang Matl','Roof Sheathing','Roof Sheathing'/ Roof_Sheathing_D
&OBST XB=24.80,25.00,3.00,3.60,3.50,3.60, SURF_IDS='Overhang Matl','Roof Sheathing','Roof Sheathing'/ Roof_Sheathing_D
&OBST XB=24.80,25.00,2.60,3.20,3.40,3.50, SURF_IDS='Overhang Matl','Roof Sheathing','Roof Sheathing'/ Roof_Sheathing_D
&OBST XB=24.80,25.00,2.20,2.80,3.30,3.40, SURF_IDS='Overhang Matl','Roof Sheathing','Roof Sheathing'/ Roof_Sheathing_D
! ... 19 like lines cut
&OBST XB=3.10,14.80,15.40,16.00,2.80,2.90, SURF_IDS='Overhang Matl','Roof Sheathing','Roof Sheathing'/ Roof_Sheathing_LAdd
&OBST XB=2.60,15.30,15.90,16.50,2.70,2.80, SURF_IDS='Overhang Matl','Roof Sheathing','Roof Sheathing'/ Roof_Sheathing_LAdd
&OBST XB=3.70,14.30,14.90,15.50,2.90,3.00, SURF_IDS='Overhang Matl','Roof Sheathing','Roof Sheathing'/ Roof_Sheathing_LAdd
&OBST XB=4.10,13.80,14.40,15.00,3.00,3.10, SURF_IDS='Overhang Matl','Roof Sheathing','Roof Sheathing'/ Roof_Sheathing_LAdd
&OBST XB=4.60,13.30,13.80,14.50,3.10,3.20, SURF_IDS='Overhang Matl','Roof Sheathing','Roof Sheathing'/ Roof_Sheathing_LAdd
&OBST XB=5.10,12.80,13.20,13.85,3.20,3.30, SURF_IDS='Overhang Matl','Roof Sheathing','Roof Sheathing'/ Roof_Sheathing_LAdd
&OBST XB=5.60,12.30,12.70,13.30,3.30,3.40, SURF_IDS='Overhang Matl','Roof Sheathing','Roof Sheathing'/ Roof_Sheathing_LAdd
&OBST XB=6.10,11.80,12.20,12.80,3.40,3.50, SURF_IDS='Overhang Matl','Roof Sheathing','Roof Sheathing'/ Roof_Sheathing_LAdd
&OBST XB=6.60,11.30,11.80,12.30,3.50,3.60, SURF_IDS='Overhang Matl','Roof Sheathing','Roof Sheathing'/ Roof_Sheathing_LAdd
&OBST XB=7.10,10.80,11.30,11.90,3.60,3.70, SURF_IDS='Overhang Matl','Roof Sheathing','Roof Sheathing'/ Roof_Sheathing_LAdd
&OBST XB=7.40,10.50,10.90,11.40,3.70,3.80, SURF_IDS='Overhang Matl','Roof Sheathing','Roof Sheathing'/ Roof_Sheathing_LAdd
&OBST XB=7.70,10.20,10.50,11.00,3.80,3.90, SURF_IDS='Overhang Matl','Roof Sheathing','Roof Sheathing'/ Roof_Sheathing_LAdd
&OBST XB=8.00,9.90,10.10,10.60,3.90,4.00, SURF_IDS='Overhang Matl','Roof Sheathing','Roof Sheathing'/ Roof_Sheathing_LAdd
&OBST XB=8.30,9.60,9.70,10.20,4.00,4.10, SURF_IDS='Overhang Matl','Roof Sheathing','Roof Sheathing'/ Roof_Sheathing_LAdd
&OBST XB=8.60,9.30,6.50,9.80,4.10,4.20, SURF_IDS='Overhang Matl','Roof Sheathing','Roof Sheathing'/ Roof_Sheathing_LAdd
&OBST XB=8.30,9.60,6.90,9.70,4.00,4.10, SURF_IDS='Overhang Matl','Roof Sheathing','Roof Sheathing'/ Roof_Sheathing_LAdd
&OBST XB=9.50,9.90,7.30,10.10,3.90,4.00, SURF_IDS='Overhang Matl','Roof Sheathing','Roof Sheathing'/ Roof_Sheathing_LAdd
&OBST XB=10.10,10.50,8.10,10.90,3.70,3.80, SURF_IDS='Overhang Matl','Roof Sheathing','Roof Sheathing'/ Roof_Sheathing_LAdd
&OBST XB=10.400,10.80,8.50,11.30,3.60,3.70, SURF_IDS='Overhang Matl','Roof Sheathing','Roof Sheathing'/ Roof_Sheathing_LAdd
&OBST XB=14.80,15.30,13.60,15.90,2.70,2.80, SURF_IDS='Overhang Matl','Roof Sheathing','Roof Sheathing'/ Roof_Sheathing_LAdd
! ... 22 like lines cut
&OBST XB=20.20,30.80,17.90,18.50,2.70,2.80, SURF_IDS=' Overhang Matl','Roof Sheathing','Roof Sheathing'/ Roof_Sheathing_ExAdd
&OBST XB=20.50,30.400,17.40,18.00,2.80,2.90, SURF_IDS='Overhang Matl','Roof Sheathing','Roof Sheathing'/ Roof_Sheathing_ExAdd
&OBST XB=20.80,30.10,17.00,17.50,2.90,3.00, SURF_IDS='Overhang Matl','Roof Sheathing','Roof Sheathing'/ Roof_Sheathing_ExAdd
&OBST XB=21.10,29.60,16.50,17.10,3.00,3.10, SURF_IDS='Overhang Matl','Roof Sheathing','Roof Sheathing'/ Roof_Sheathing_ExAdd
&OBST XB=21.40,29.20,16.10,16.60,3.10,3.20, SURF_IDS='Overhang Matl','Roof Sheathing','Roof Sheathing'/ Roof_Sheathing_ExAdd
&OBST XB=21.70,28.80,15.60,16.20,3.20,3.30, SURF_IDS='Overhang Matl','Roof Sheathing','Roof Sheathing'/ Roof_Sheathing_ExAdd
&OBST XB=22.00,28.40,15.20,15.70,3.30,3.40, SURF_IDS='Overhang Matl','Roof Sheathing','Roof Sheathing'/ Roof_Sheathing_ExAdd
&OBST XB=22.30,28.00,14.70,15.30,3.40,3.50, SURF_IDS='Overhang Matl','Roof Sheathing','Roof Sheathing'/ Roof_Sheathing_ExAdd
&OBST XB=23.20,27.20,13.80,14.40,3.60,3.70, SURF_IDS='Overhang Matl','Roof Sheathing','Roof Sheathing'/ Roof_Sheathing_ExAdd
&OBST XB=23.50,26.80,13.40,13.90,3.70,3.80, SURF_IDS='Overhang Matl','Roof Sheathing','Roof Sheathing'/ Roof_Sheathing_ExAdd
&OBST XB=24.90,25.70,11.80,12.70,4.00,4.10, SURF_IDS='Overhang Matl','Roof Sheathing','Roof Sheathing'/ Roof_Sheathing_ExAdd
&OBST XB=23.50,23.90,8.10,13.40,3.70,3.80, SURF_IDS='Overhang Matl','Roof Sheathing','Roof Sheathing'/ Roof_Sheathing_ExAdd
&OBST XB=23.20,23.60,8.50,13.80,3.60,3.70, SURF_IDS='Overhang Matl','Roof Sheathing','Roof Sheathing'/ Roof_Sheathing_ExAdd
&OBST XB=22.70,23.30,8.90,14.30,3.50,3.60, SURF_IDS='Overhang Matl','Roof Sheathing','Roof Sheathing'/ Roof_Sheathing_ExAdd
&OBST XB=22.30,22.70,9.30,14.70,3.40,3.50, SURF_IDS='Overhang Matl','Roof Sheathing','Roof Sheathing'/ Roof_Sheathing_ExAdd
&OBST XB=22.00,22.40,9.70,15.20,3.30,3.40, SURF_IDS='Overhang Matl','Roof Sheathing','Roof Sheathing'/ Roof_Sheathing_ExAdd
&OBST XB=21.70,22.10,10.10,15.60,3.20,3.30, SURF_IDS='Overhang Matl','Roof Sheathing','Roof Sheathing'/ Roof_Sheathing_ExAdd
&OBST XB=21.40,21.80,10.50,16.10,3.10,3.20, SURF_IDS='Overhang Matl','Roof Sheathing','Roof Sheathing'/ Roof_Sheathing_ExAdd
&OBST XB=21.11,21.51,10.90,16.50,3.00,3.10, SURF_IDS='Overhang Matl','Roof Sheathing','Roof Sheathing'/ Roof_Sheathing_ExAdd
&OBST XB=20.82,21.22,11.80,17.00,2.90,3.00, SURF_IDS='Overhang Matl','Roof Sheathing','Roof Sheathing'/ Roof_Sheathing_ExAdd
! ... 22 like lines cut
&OBST XB=25.50,26.00,7.60,12.70,3.90,4.00, SURF_IDS='Overhang Matl','Roof Sheathing','Roof Sheathing'/ Roof_Sheathing_ExAdd[1]
&OBST XB=30.400,30.80,9.30,17.90,2.70,2.80, SURF_IDS='Overhang Matl','Roof Sheathing','Roof Sheathing'/ Roof_Sheathing_ExAdd[1]
&OBST XB=33.30,33.60,0.40,5.30,2.80,2.90, SURF_IDS='Overhang Matl','Roof Sheathing','Roof Sheathing'/ BathAdditionRoof
&OBST XB=33.20,33.50,0.40,5.50,2.90,3.00, SURF_IDS='Overhang Matl','Roof Sheathing','Roof Sheathing'/ BathAdditionRoof
&OBST XB=33.10,33.40,0.40,5.50,3.00,3.10, SURF_IDS='Overhang Matl','Roof Sheathing','Roof Sheathing'/ BathAdditionRoof
&OBST XB=33.00,33.30,0.40,5.70,3.10,3.20, SURF_IDS='Overhang Matl','Roof Sheathing','Roof Sheathing'/ BathAdditionRoof
&OBST XB=32.90,33.20,0.40,5.80,3.20,3.30, SURF_IDS='Overhang Matl','Roof Sheathing','Roof Sheathing'/ BathAdditionRoof
&OBST XB=32.80,33.10,0.40,6.00,3.30,3.40, SURF_IDS='Overhang Matl','Roof Sheathing','Roof Sheathing'/ BathAdditionRoof
&OBST XB=32.70,33.00,0.40,6.20,3.40,3.50, SURF_IDS='Overhang Matl','Roof Sheathing','Roof Sheathing'/ BathAdditionRoof
&OBST XB=32.60,32.90,0.40,6.30,3.50,3.60, SURF_IDS='Overhang Matl','Roof Sheathing','Roof Sheathing'/ BathAdditionRoof
&OBST XB=32.50,32.80,0.40,6.50,3.60,3.70, SURF_IDS='Overhang Matl','Roof Sheathing','Roof Sheathing'/ BathAdditionRoof
&OBST XB=32.40,32.70,0.40,6.60,3.70,3.80, SURF_IDS='Overhang Matl','Roof Sheathing','Roof Sheathing'/ BathAdditionRoof
&OBST XB=32.30,32.60,0.40,6.80,3.80,3.90, SURF_IDS='Overhang Matl','Roof Sheathing','Roof Sheathing'/ BathAdditionRoof
&OBST XB=33.40,33.70,0.40,5.10,2.70,2.80, SURF_IDS='Overhang Matl','Roof Sheathing','Roof Sheathing'/ BathAdditionRoof
&OBST XB=32.20,32.30,0.50,7.10,3.90,4.10, SURF_IDS='Overhang Matl','Roof Sheathing','Roof Sheathing'/ BathAdditionRoof
&OBST XB=32.20,32.50,0.40,7.00,3.90,4.00, SURF_IDS='Overhang Matl','Roof Sheathing','Roof Sheathing'/ BathAdditionRoof
&OBST XB=30.80,31.10,0.40,5.30,2.80,2.90, SURF_IDS='Overhang Matl','Roof Sheathing','Roof Sheathing'/ BathAdditionRoof[1]
&OBST XB=30.90,31.20,0.40,5.50,2.90,3.00, SURF_IDS='Overhang Matl','Roof Sheathing','Roof Sheathing'/ BathAdditionRoof[1]
&OBST XB=31.00,31.30,0.40,5.50,3.00,3.10, SURF_IDS='Overhang Matl','Roof Sheathing','Roof Sheathing'/ BathAdditionRoof[1]
&OBST XB=31.10,31.40,0.40,5.70,3.10,3.20, SURF_IDS='Overhang Matl','Roof Sheathing','Roof Sheathing'/ BathAdditionRoof[1]
&OBST XB=31.20,31.50,0.40,5.80,3.20,3.30, SURF_IDS='Overhang Matl','Roof Sheathing', 'Roof Sheathing'/ BathAdditionRoof[1]
&OBST XB=31.30,31.60,0.40,6.00,3.30,3.40, SURF_IDS='Overhang Matl','Roof Sheathing','Roof Sheathing'/ BathAdditionRoof[1]
&OBST XB=31.40,31.70,0.40,6.20,3.40,3.50, SURF_IDS='Overhang Matl','Roof Sheathing','Roof Sheathing'/ BathAdditionRoof[1]
&OBST XB=31.50,31.80,0.40,6.30,3.50,3.60, SURF_IDS='Overhang Matl','Roof Sheathing','Roof Sheathing'/ BathAdditionRoof[1]
&OBST XB=31.60,31.90,0.40,6.50,3.60,3.70, SURF_IDS='Overhang Matl','Roof Sheathing','Roof Sheathing'/ BathAdditionRoof[1]
&OBST XB=31.70,32.00,0.40,6.60,3.70,3.80, SURF_IDS='Overhang Matl','Roof Sheathing','Roof Sheathing'/ BathAdditionRoof[1]
&OBST XB=31.80,32.10,0.40,6.80,3.80,3.90, SURF_IDS='Overhang Matl','Roof Sheathing','Roof Sheathing'/ BathAdditionRoof[1]
&OBST XB=30.70,31.00,0.40,5.10,2.70,2.80, SURF_IDS='Overhang Matl','Roof Sheathing','Roof Sheathing'/ BathAdditionRoof[1]
&OBST XB=31.90,32.20,0.40,7.00,3.90,4.00, SURF_IDS='Overhang Matl','Roof Sheathing','Roof Sheathing'/ BathAdditionRoof[1]
&OBST XB=25.70,33.70,7.10,7.60,4.00,4.10, SURF_IDS='Overhang Matl','Roof Sheathing','Roof Sheathing'/ Roof_Sheathing_Steam
&OBST XB=30.80,33.70,9.70,9.90,2.40,2.60, SURF_IDS='Overhang Matl','Roof Sheathing','Roof Sheathing'/ Roof_Sheathing_Steam
&OBST XB=30.80,33.70,9.50,9.80,2.60,2.70, SURF_IDS='Overhang Matl','Roof Sheathing','Roof Sheathing'/ Roof_Sheathing_Steam
&OBST XB=30.80,33.70,9.40,9.60,2.70,2.80, SURF_IDS='Overhang Matl','Roof Sheathing','Roof Sheathing'/ Roof_Sheathing_Steam
&OBST XB=30.400,33.70,9.30,9.40,2.80,2.90, SURF_IDS='Overhang Matl','Roof Sheathing','Roof Sheathing'/ Roof_Sheathing_Steam
&OBST XB=30.10,33.70,9.10,9.30,2.90,3.00, SURF_IDS='Overhang Matl','Roof Sheathing','Roof Sheathing'/ Roof_Sheathing_Steam
&OBST XB=29.60,33.70,8.90,9.20,3.00,3.10, SURF_IDS='Overhang Matl','Roof Sheathing','Roof Sheathing'/ Roof_Sheathing_Steam
&OBST XB=29.20,33.70,8.81,9.00,3.10,3.20, SURF_IDS='Overhang Matl','Roof Sheathing','Roof Sheathing'/ Roof_Sheathing_Steam
&OBST XB=28.80,33.70,8.60,8.90,3.20,3.30, SURF_IDS='Overhang Matl','Roof Sheathing','Roof Sheathing'/ Roof_Sheathing_Steam
&OBST XB=28.40,33.70,8.40,8.70,3.30,3.40, SURF_IDS='Overhang Matl','Roof Sheathing','Roof Sheathing'/ Roof_Sheathing_Steam
&OBST XB=28.00,33.70,8.30,8.50,3.40,3.50, SURF_IDS='Overhang Matl','Roof Sheathing','Roof Sheathing'/ Roof_Sheathing_Steam
&OBST XB=27.60,33.70,8.10,8.30,3.50,3.60, SURF_IDS='Overhang Matl','Roof Sheathing','Roof Sheathing'/ Roof_Sheathing_Steam
&OBST XB=27.20,33.70,8.00,8.20,3.60,3.70, SURF_IDS='Overhang Matl','Roof Sheathing','Roof Sheathing'/ Roof_Sheathing_Steam
&OBST XB=26.80,33.70,7.80,8.10,3.70,3.80, SURF_IDS='Overhang Matl','Roof Sheathing','Roof Sheathing'/ Roof_Sheathing_Steam
&OBST XB=26.40,33.70,7.70,7.90,3.80,3.90, SURF_IDS='Overhang Matl','Roof Sheathing','Roof Sheathing'/ Roof_Sheathing_Steam
&OBST XB=26.00,33.70,7.50,7.70,3.90,4.00, SURF_IDS='Overhang Matl','Roof Sheathing','Roof Sheathing'/ Roof_Sheathing_Steam
&OBST XB=30.80,33.70,4.80,5.30,2.70,2.80, SURF_IDS='Overhang Matl','Roof Sheathing' ,'Roof Sheathing'/ Roof_Sheathing_Steam
&OBST XB=30.400,33.70,5.30,5.40,2.80,2.90, SURF_IDS='Overhang Matl','Roof Sheathing','Roof Sheathing'/ Roof_Sheathing_Steam
&OBST XB=30.10,33.70,5.40,5.60,2.90,3.00, SURF_IDS='Overhang Matl','Roof Sheathing','Roof Sheathing'/ Roof_Sheathing_Steam
&OBST XB=29.60,33.70,5.50,5.80,3.00,3.10, SURF_IDS='Overhang Matl','Roof Sheathing','Roof Sheathing'/ Roof_Sheathing_Steam
! ... 9 like lines cut
&OBST XB=20.20,20.30,13.60,17.40,2.40,2.50, RGB=153,102,0, SURF_ID='Overhang Matl'/ Roof_Fascia
&OBST XB=-1.30,2.60,12.00,12.10,2.50,2.70, RGB=153,102,0, SURF_ID='Wood Joists02'/ Roof_Fascia
&OBST XB=24.90,30.80, -0.60, -0.50,2.50,2.70, RGB=153,102,0, SURF_ID='Wood Joists02'/ Roof_FasciaA1
&OBST XB=24.90,25.00, -0.50,0.40,2.50,2.70, RGB=153,102,0, SURF_ID='Wood Joists02'/ Roof_FasciaA2
&OBST XB=-1.30,24.90,0.40,0.50,2.50,2.70, RGB=153,102,0, SURF_ID='Wood Joists02'/ Roof_FasciaA3
&OBST XB=-1.30, -1.20,0.40,12.00,2.50,2.70, RGB=153,102,0, SURF_ID='Wood Joists02'/ Roof_FasciaB
&OBST XB=30.70,30.80, -0.50,5.40,2.50,2.70, RGB=153,102,0, SURF_ID='Wood Joists02'/ Roof_FasciaD1
&OBST XB=15.30,20.30,13.50,13.60,2.50,2.70, RGB=153,102,0, SURF_ID='Wood Joists02'/ Roof_FasciaC1
&OBST XB=2.60, 2.70,12.10,16.40,2.50,2.70, RGB=153,102,0, SURF_ID='Wood Joists02'/ Roof_FasciaC2
&OBST XB=2.60,15.30,16.40,16.50,2.50,2.70, RGB=153,102,0, SURF_ID='Wood Joists02'/ Roof_FasciaC3
&OBST XB=15.20,15.30,12.00,16.40,2.50,2.70, RGB=153,102,0, SURF_ID='Wood Joists02'/ Roof_FasciaC4
&OBST XB=20.20,20.30,13.60,18.40,2.50,2.70, RGB=153,102,0, SURF_ID='Wood Joists02'/ Roof_FasciaC5
&OBST XB=20.20,30.80,18.40,18.50,2.50,2.70, RGB=153,102,0, SURF_ID='Wood Joists02'/ Roof_FasciaC6
&OBST XB=30.80,33.70,0.40,0.50,2.50,2.70, RGB=153,102,0, SURF_ID='Wood Joists02'/ Roof_FasciaAD1
&OBST XB=31.00,33.40,0.40,0.50,2.70,2.80, RGB=153,102,0, SURF_ID='Roof Sheathing'/ Roof_FasciaAD2
&OBST XB=31.10,33.30,0.40,0.50,2.80,2.90, RGB=153,102,0, SURF_ID='Roof Sheathing'/ Roof_FasciaAD3
&OBST XB=31.20,33.20,0.40,0.50,2.90,3.00, RGB=153,102,0, SURF_ID='Roof Sheathing'/ Roof_FasciaAD4
&OBST XB=31.30,33.10,0.40,0.50,3.00,3.10, RGB=153,102,0, SURF_ID='Roof Sheathing'/ Roof_FasciaAD5
&OBST XB=31.40,33.00,0.40,0.50,3.10,3.20, RGB=153,102,0, SURF_ID='Roof Sheathing'/ Roof_FasciaAD6
&OBST XB=31.50,32.90,0.40,0.50,3.20,3.30, RGB=153,102,0, SURF_ID='Roof Sheathing'/ Roof_FasciaAD7
&OBST XB=31.60,32.80,0.40,0.50,3.30,3.40, RGB=153,102,0, SURF_ID='Roof Sheathing'/ Roof_FasciaAD8
&OBST XB=31.70,32.70,0.40,0.50,3.40,3.50, RGB=153,102,0, SURF_ID='Roof Sheathing'/ Roof_FasciaAD9
&OBST XB=31.80,32.60,0.40,0.50,3.50,3.90, RGB=153,102,0, SURF_ID='Roof Sheathing'/ Roof_FasciaAD10
&OBST XB=30.70,30.80,9.80,18.50,2.50,2.70, RGB=153,102,0, SURF_ID='Wood Joists02'/ Roof_FasciaD1[1]
&OBST XB=29.60,29.60,8.30,8.40,3.50,3.90, PERMIT_HOLE=.FALSE., SURF_ID='Roof Sheathing'/ RoofVent6
&OBST XB=30.00,30.00,8.30,8.40,3.50,3.90, PERMIT_HOLE=.FALSE., SURF_ID='Roof Sheathing'/ RoofVent6
&OBST XB=29.60,29.60,8.20,8.30,3.60,3.90, PERMIT_HOLE=.FALSE., SURF_ID='Roof Sheathing'/ RoofVent6
&OBST XB=30.00,30.00,8.20,8.30,3.60,3.90, PERMIT_HOLE=.FALSE., SURF_ID='Roof Sheathing'/ RoofVent6
&OBST XB=29.60,29.60,8.10,8.20,3.70,3.90, PERMIT_HOLE=.FALSE., SURF_ID='Roof Sheathing'/ RoofVent6
&OBST XB=30.00,30.00,8.10,8.20,3.70,3.90, PERMIT_HOLE=.FALSE., SURF_ID='Roof Sheathing'/ RoofVent6
&OBST XB=29.60,29.60,7.90,8.10,3.80,3.90, PERMIT_HOLE=.FALSE., SURF_ID='Roof Sheathing'/ RoofVent6
&OBST XB=30.00,30.00,7.90,8.10,3.80,3.90, PERMIT_HOLE=.FALSE., SURF_ID='Roof Sheathing'/ RoofVent6
&OBST XB=9.30,9.70,6.50,6.50,4.10,4.20, SURF_ID='Roof Sheathing'/ Center Roof VENT1
&OBST XB=9.30,9.70,6.00,6.00,4.10,4.20, SURF_ID='Roof Sheathing'/ Center Roof VENT1
&OBST XB=9.30, 9.70,6.00,6.50,4.20,4.20, OUTLINE=.TRUE., SURF_ID='Vent Flow'/ TurbineBottom
&OBST XB=16.00,16.40,6.50,6.50,4.10,4.20, SURF_ID='Roof Sheathing'/ Center Roof VENT2
&OBST XB=16.00,16.40,6.00,6.00,4.10,4.20, SURF_ID='Roof Sheathing'/ Center Roof VENT2
&OBST XB=16.00,16.40,6.00,6.50,4.20,4.20, OUTLINE=.TRUE., SURF_ID='Vent Flow'/ TurbineBottom2
&OBST XB=22.00,22.40,6.50,6.50,4.10,4.20, SURF_ID='Roof Sheathing'/ Center Roof VENT3
&OBST XB=22.00,22.40,6.00,6.00,4.10,4.20, SURF_ID='Roof Sheathing'/ Center Roof VENT3
&OBST XB=22.00,22.40,6.00,6.50,4.20,4.20, OUTLINE=.TRUE., SURF_ID='Vent Flow'/ TurbineBottom3
&OBST XB=29.60,30.00,8.40,8.40,3.50,3.90, SURF_ID='Roof Sheathing'/ Center Roof VENT4
&OBST XB=29.60,30.00,7.90,7.90,3.80,3.90, SURF_ID='Roof Sheathing'/ Center Roof VENT4
&OBST XB=29.60,30.00,7.90,8.40,3.90,3.90, OUTLINE=.TRUE., SURF_ID='Vent Flow'/ TurbineBottom4
&OBST XB=9.80,10.20,11.40,11.40,3.70,3.90, PERMIT_HOLE=.FALSE., SURF_ID='Roof Sheathing'/ RoofVent5
&OBST XB=9.80,10.20,10.90,10.90,3.80,3.90, PERMIT_HOLE=.FALSE., SURF_ID='Roof Sheathing'/ RoofVent5
&OBST XB=9.80,10.20,10.90,11.40,3.90,3.90, OUTLINE=.TRUE., SURF_ID='Vent Flow'/ RoofVent5
&OBST XB=10.20,10.20,10.90,11.40,3.80,3.90, PERMIT_HOLE=.FALSE., SURF_ID='Roof Sheathing'/ RoofVent5[1]
&OBST XB=9.80,9.80,10.90,11.40,3.80,3.90, PERMIT_HOLE=.FALSE., SURF_ID='Roof Sheathing'/ RoofVent5[1]
&OBST XB=24.50,24.90,6.10,7.70,1.70,1.90, SURF_ID='Cotton'/ Closet Combustibles
&OBST XB=22.70,24.90,5.70,6.10,1.70,1.90, SURF_ID='Cotton'/ Closet Combustibles
&OBST XB=22.70,23.20,6.10,7.70,1.70,1.90, SURF_ID='Cotton'/ Closet Combustibles
&OBST XB=24.50,24.90,6.10,7.70,1.30,1.50, SURF_ID='Cotton'/ Closet Combustibles
&OBST XB=22.70,24.90,5.70,6.10,1.30,1.50, SURF_ID='Cotton'/ Closet Combustibles
&OBST XB=22.70,23.20,6.10,7.70,1.30,1.50, SURF_ID='Cotton'/ Closet Combustibles
&OBST XB=22.70,23.20,5.70,7.70,1.60,1.70, SURF_ID='shelf'/ Closet Combustibles
&OBST XB=23.20,24.90,5.70,6.10,1.60,1.70, SURF_ID='shelf'/ Closet Combustibles
&OBST XB=24.50,24.90,6.10,7.70,1.60,1.70, SURF_ID='shelf'/ Closet Combustibles
&OBST XB=22.70,23.20,5.70,7.70,1.20,1.30, SURF_ID='shelf'/ Closet Combustibles
&OBST XB=23.20,24.90,5.70,6.10,1.20,1.30, SURF_ID='shelf'/ Closet Combustibles
&OBST XB=24.50,24.90,6.10,7.70,1.20,1.30, SURF_ID='shelf'/ Closet Combustibles
&OBST XB=24.50,24.90,6.10,7.70,0.90,1.10, SURF_ID='Cotton'/ Closet Combustibles
&OBST XB=22.70,24.90,5.70,6.10,0.90,1.10, SURF_ID='Cotton'/ Closet Combustibles
&OBST XB=22.70,23.20,6.10,7.70,0.90,1.10, SURF_ID='Cotton'/ Closet Combustibles
&OBST XB=22.70,23.20,5.70,7.70,0.80,0.90, SURF_ID='shelf'/ Closet Combustibles
&OBST XB=23.20,24.90,5.70,6.10,0.80,0.90, SURF_ID='shelf'/ Closet Combustibles
&OBST XB=24.50,24.90,6.10,7.70,0.80,0.90, SURF_ID='shelf'/ Closet Combustibles
&OBST XB=24.50,24.90,6.10,7.70,0.50,0.70, SURF_ID='Cotton'/ Closet Combustibles
&OBST XB=22.70,24.90,5.70,6.10,0.50,0.70, SURF_ID='Cotton'/ Closet Combustibles
&OBST XB=22.70,23.20,6.10,7.70,0.50,0.70, SURF_ID='Cotton'/ Closet Combustibles
&OBST XB=22.70,23.20,5.70,7.70,0.40,0.50, SURF_ID='shelf'/ Closet Combustibles
&OBST XB=23.20,24.90,5.70,6.10,0.40,0.50, SURF_ID='shelf'/ Closet Combustibles
&OBST XB=24.50,24.90,6.10,7.70,0.40,0.50, SURF_ID='shelf'/ Closet Combustibles
&OBST XB=30.70,30.80,9.90,17.40,0,2.40, SURF_ID6='Gypsum','Brick','Brick','Brick','Brick','Brick'/ Wall_Exterior
&OBST XB=30.80,33.40,9.80,9.90,0,2.40, SURF_ID6='Brick','Brick','Gypsum','Brick','Brick','Brick'/ Wall_Exterior
&OBST XB=2.70,15.30,14.90,15.00,0,2.40, SURF_ID6='Brick','Brick','Gypsum','Brick','Brick','Brick'/ Wall_Exterior
&OBST XB=20.20,30.80,17.40,17.50,0,2.40, SURF_ID6='Brick','Brick','Gypsum','Brick','Brick','Brick'/ Wall_Exterior
&OBST XB=20.20,20.30,15.00,17.40,0,2.40, SURF_ID6='Brick','Gypsum','Brick','Brick','Brick','Brick'/ Wall_Exterior
&OBST XB=0.2000,0.3,2.20,12.00,0,2.40, SURF_ID6='Brick','Gypsum','Brick','Brick','Brick','Brick'/ Wall_Exterior
&OBST XB=0.2000,2.70,12.00,12.10,0,2.40, SURF_ID6='Brick','Brick','Gypsum','Brick','Brick','Brick'/ Wall_Exterior
&OBST XB=33.30,33.40,0.40,9.80,0,2.40, SURF_ID6='Gypsum','Brick','Brick','Brick','Brick','Brick'/ Wall_Exterior
&OBST XB=24.90,33.40,0.40,0.50,0,2.40, SURF_ID6='Brick','Brick','Brick','Gypsum','Brick','Brick'/ Wall_Exterior
&OBST XB=24.90,25.00,0.50,3.40,0,2.40, SURF_ID6='Brick','Gypsum','Brick','Brick','Brick','Brick'/ Wall_Exterior
&OBST XB=21.40,25.00,3.40,3.50,0,2.40, SURF_ID6='Brick','Brick','Brick','Gypsum','Brick','Brick'/ Wall_Exterior
&OBST XB=0.2000,21.40,2.10,2.20,0,2.40, SURF_ID6='Brick','Brick','Brick','Gypsum','Brick','Brick'/ Wall_Exterior
&OBST XB=21.40,21.50,2.10,3.40,0,2.40, SURF_ID6='Gypsum','Brick','Brick','Brick','Brick','Brick'/ Wall_Exterior
&OBST XB=21.40,21.50,3.50,7.70,0,2.40, SURF_ID='Gypsum'/ Wall_Exterior
&OBST XB=33.60,33.70,0.40,9.70,2.50,2.70, SURF_ID='Roof Sheathing'/ Wall_Interior
&OBST XB=30.70,30.80,5.40,7.50,2.50,2.90, PERMIT_HOLE=.FALSE., SURF_ID='Ceiling Gypsum'/ Wall_Interior
&OBST XB=30.70,30.80,5.50,7.50,2.90,3.00, PERMIT_HOLE=.FALSE., SURF_ID='Ceiling Gypsum'/ Wall_Interior
&OBST XB=30.70,30.80,5.70,7.50,3.00,3.10, PERMIT_HOLE=.FALSE., SURF_ID='Ceiling Gypsum'/ Wall_Interior
&OBST XB=30.70,30.80,5.80,7.50,3.10,3.20, PERMIT_HOLE=.FALSE., SURF_ID='Ceiling Gypsum'/ Wall_Interior
&OBST XB=30.70,30.80,6.00,7.50,3.20,3.30, PERMIT_HOLE=.FALSE., SURF_ID='Ceiling Gypsum'/ Wall_Interior
&OBST XB=30.70,30.80,6.20,7.50,3.30,3.40, PERMIT_HOLE=.FALSE., SURF_ID='Ceiling Gypsum'/ Wall_Interior
&OBST XB=30.70,30.80,6.30,7.50,3.40,3.50, PERMIT_HOLE=.FALSE., SURF_ID='Ceiling Gypsum'/ Wall_Interior
&OBST XB=30.70,30.80,6.50,7.50,3.50,3.60, PERMIT_HOLE=.FALSE., SURF_ID='Ceiling Gypsum'/ Wall_Interior
&OBST XB=30.70,30.80,6.60,7.50,3.60,3.70, PERMIT_HOLE=.FALSE., SURF_ID='Ceiling Gypsum'/ Wall_Interior
&OBST XB=30.70,30.80,6.80,7.50,3.70,3.80, PERMIT_HOLE=. FALSE., SURF_ID='Ceiling Gypsum'/ Wall_Interior
&OBST XB=30.70,30.80,7.00,7.50,3.80,3.90, PERMIT_HOLE=.FALSE., SURF_ID='Ceiling Gypsum'/ Wall_Interior
&OBST XB=30.70,30.80,7.10,7.50,3.90,4.00, PERMIT_HOLE=.FALSE., SURF_ID='Ceiling Gypsum'/ Wall_Interior
&OBST XB=33.60,33.70,7.30,7.40,2.70,4.00, PERMIT_HOLE=.FALSE., SURF_ID='Overhang Matl'/ Wall_Interior
&OBST XB=33.40,33.70,0.40,9.90,2.40,2.50, PERMIT_HOLE=.FALSE., SURF_ID='Overhang Matl'/ Wall_Interior
&OBST XB=33.30,33.60,7.50,7.60,2.50,4.00, PERMIT_HOLE=.FALSE., SURF_ID='Ceiling Gypsum'/ Wall_Interior
&OBST XB=25.00,27.90,7.70,7.80,0,2.40, SURF_ID='Gypsum'/ Wall_Interior
&OBST XB=25.00,27.90,5.60,5.70,0,2.40, SURF_ID='Gypsum'/ Wall_Interior
&OBST XB=30.70,33.30,7.50,7.60,0,2.40, SURF_ID='Gypsum'/ Wall_Interior
&OBST XB=30.70,30.80,4.70,7.50,0,2.40, SURF_ID='Gypsum'/ Wall_Interior
&OBST XB=30.70,30.80,7.60,9.90,0,2.40, SURF_ID='Gypsum'/ Wall_Interior
&OBST XB=20.20,30.70,13.60,13.70,0,2.40, SURF_ID='Gypsum'/ Wall_Interior
&OBST XB=21.80,21.90,8.90,13.60,0, 2.40, SURF_ID='Gypsum'/ Wall_Interior
&OBST XB=24.90,25.00,8.90,13.70,0,2.40, SURF_ID='Gypsum'/ Wall_Interior
&OBST XB=22.80,25.00,8.90,9.00,0,2.40, SURF_ID='Gypsum'/ Wall_Interior
&OBST XB=21.20,22.80,8.90,9.00,0,2.40, SURF_ID='Gypsum'/ Wall_Interior
&OBST XB=27.80,30.70,6.30,6.40,0,2.40, SURF_ID='Gypsum'/ Wall_Interior
&OBST XB=27.80,27.90,4.80,7.70,0,2.40, SURF_ID='Gypsum'/ Wall_Interior
&OBST XB=22.60,25.00,7.70,7.80,0,2.40, SURF_ID6='Gypsum','Gypsum','Closet Walls','Gypsum','Gypsum','Gypsum'/ Wall_Interior
&OBST XB=24.90,25.00,5.60,7.80,0,2.40, SURF_ID6='Closet Walls','Gypsum','Gypsum','Gypsum','Gypsum','Gypsum'/ Wall_Interior
&OBST XB=22.70,25.00,5.60,5.70,0,2.40, SURF_ID6='Gypsum','Gypsum','Gypsum','Closet Walls','Gypsum','Gypsum'/ Wall_Interior
&OBST XB=24.10,33.30,4.70,4.80,0,2.40, SURF_ID='Gypsum'/ Wall_Interior
&OBST XB=25.10,25.20,4.70,5.60,0,2.40, SURF_ID='Gypsum'/ Wall_Interior
&OBST XB=24.00,24.10,3.50,4.80,0,2.40, SURF_ID='Gypsum'/ Wall_Interior
&OBST XB=14.60,14.70,11.40,14.90,0,2.40, SURF_ID='Gypsum'/ Wall_Interior
&OBST XB=12.60,19.50,7.60,7.70,0,2.40, SURF_ID='Gypsum'/ Wall_Interior
&OBST XB=12.60,12.70,7.70,8.90,0,2.40, SURF_ID='Gypsum'/ Wall_Interior
&OBST XB=12.70,14.70,8.80,8.90,0,2.40, SURF_ID='Gypsum'/ Wall_Interior
&OBST XB=14.60,14. 70,2.20,8.80,0,2.40, SURF_ID='Gypsum'/ Wall_Interior
&OBST XB=7.10,7.20,12.70,14.90,0,2.40, SURF_ID='Gypsum'/ Wall_Interior
&OBST XB=4.70,7.10,12.70,12.80,0,2.40, SURF_ID='Gypsum'/ Wall_Interior
&OBST XB=4.70,4.80,12.80,14.90,0,2.40, SURF_ID='Gypsum'/ Wall_Interior
&OBST XB=30.70,30.80,0.50,4.80,0,2.40, SURF_ID='Gypsum'/ Wall_Interior
&OBST XB=2.70,2.80,2.20,12.00,0,2.40, SURF_ID='Gypsum'/ Wall_Interior
&OBST XB=0.3,2.70,6.50,6.60,0,2.40, SURF_ID='Gypsum'/ Wall_Interior
&OBST XB=2.80,9.20,9.90,10.00,0,2.40, SURF_ID='Gypsum'/ Wall_Interior
&OBST XB=9.10,9.20,7.90,9.90,0,2.40, SURF_ID='Gypsum'/ Wall_Interior
&OBST XB=9.20,10.60,7.90,8.00,0,2.40, SURF_ID='Gypsum'/ Wall_Interior
&OBST XB=10.10,10.20,2.20,7.90,0,2.40, SURF_ID='Gypsum'/ Wall_Interior
&OBST XB=22.60,22.70,5.60,7.70,0,2.40, SURF_ID6='Gypsum','Closet Walls','Gypsum','Gypsum','Gypsum','Gypsum'/ Wall_Interior
&OBST XB=2.70,2.80,12.00,15.00,0,2.40, SURF_ID6='Brick','Gypsum','Brick','Brick','Brick','Brick'/ Wall_Interior
&OBST XB=14.70,15.20,11.90,12.50,2.40,4.00, COLOR='GRAY 80', SURF_ID='INERT'/ Furniture_Chimney
&OBST XB=14.70,15.20,11.40,13.00,0,2.40, SURF_ID='Brick'/ Furniture_FirePl
&OBST XB=14.60,14.70,9.80,11.40,0,1.00, SURF_ID='Brick'/ Furniture_FirePlWall
&OBST XB=9.66,10.28,11.57,14.68,0,1.00, RGB=153,102,0, SURF_ID='INERT'/ Furniture_KitchCounter
&OBST XB=10.28,14.63,14.07,14.68,0,1.00, RGB=153,102,0, SURF_ID='INERT'/ Furniture_KitchCounter
&OBST XB=13.70,14.23,2.58,3.18,0,1.00, RGB=153,102,0, SURF_ID='INERT'/ Furniture_Dresser
&OBST XB=10.70,11.23,2.58,3.18,0,1.00, RGB=153,102,0, SURF_ID='INERT'/ Furniture_Dresser
&OBST XB=16.60,16.70,3.00,3.10,0,0.80, RGB=153,102,0, SURF_ID='INERT'/ Furniture_TableDen
&OBST XB=16.60,18.20,3.00,3.90,0.80,0.90, RGB=153,102,0, SURF_ID='INERT'/ Furniture_TableDen
&OBST XB=16.60,16.70,3.80,3.90,0,0.80, RGB=153,102,0, SURF_ID='INERT'/ Furniture_TableDen
&OBST XB=18.10,18.20,3.00,3.10,0,0.80, RGB=153,102,0, SURF_ID='INERT'/ Furniture_TableDen
&OBST XB=18.10,18.20,3.80,3.90,0,0.80, RGB=153,102,0, SURF_ID='INERT'/ Furniture_TableDen
&OBST XB=26.56,27.99,0.79,1.19,2.00E-3,0.72, RGB=153,102,0, SURF_ID='INERT'/ Furniture_TableDen
&OBST XB=25.22,25.60,10.24,11.74,2.00E-3,0.72, RGB=153,102,0, SURF_ID='INERT'/ Furniture_TableDen
&OBST XB=28.10,30.05,2.00,3.30,0,0.3, RGB=51,51,255, SURF_ID='INERT'/ Furniture_Bed
&OBST XB=28.30,30.30,10.35,11.65,0,0.3, RGB=51,51,255, SURF_ID='INERT'/ Furniture_Bed
&OBST XB=29.60,30.20,9.50,10.10,0,0.50, RGB=153,102,0, SURF_ID='INERT'/ Furniture_EndTables
&OBST XB=15.36,15.89,6.70,7.30,0,0.50, RGB=153,102,0, SURF_ID='INERT'/ Furniture_EndTables
&OBST XB=18.93,19.47,6.70,7.30,0,0.50, RGB=153,102,0, SURF_ID='INERT'/ Furniture_EndTables
&OBST XB=18.93,19.47,6.70,7.30,0,0.50, RGB=153,102,0, SURF_ID='INERT'/ Furniture_EndTables
&OBST XB=29.60,30.20,11.84,12.44,0,0.50, RGB=153,102,0, SURF_ID='INERT'/ Furniture_EndTables
&OBST XB=16.47,18.47,7.20,7.30,0.50,0.90, COLOR='GRAY 60', SURF_ID='INERT'/ Furniture_Sofa
&OBST XB=16.47,16.60,6.70,7.20,0.50,0.60, COLOR='GRAY 60', SURF_ID='INERT'/ Furniture_Sofa
&OBST XB=18.33,18.47,6.70,7.20,0.50,0.60, COLOR='GRAY 60', SURF_ID='INERT'/ Furniture_Sofa
&OBST XB=16.47,18.47,6.70,7.30,0,0.50, COLOR='GRAY 60', SURF_ID='INERT'/ Furniture_Sofa
&OBST XB=30.10,30.23,14.76,16.76,0.50,0.90, COLOR='GRAY 60', SURF_ID='INERT'/ Furniture_Sofa
&OBST XB=29.57,30.10,16.66,16.76,0.50,0.60, COLOR='GRAY 60', SURF_ID='INERT'/ Furniture_Sofa
&OBST XB=29.57,30.10,14.76,14.86,0.50,0.60, COLOR='GRAY 60', SURF_ID='INERT'/ Furniture_Sofa
&OBST XB=29.57,30.23,14.76,16.76,0,0.50, COLOR='GRAY 60', SURF_ID='INERT'/ Furniture_Sofa
&OBST XB=16.00,16.10,3.00,3.40,0.50,0.60, RGB=153,153,255, SURF_ID='INERT'/ Furniture_Chair
&OBST XB=15.30,16.10,2.90,3.00,0.50,0.80, RGB=153,153,255, SURF_ID='INERT'/ Furniture_Chair
&OBST XB=15.30,15.40,3. 00,3.40,0.50,0.60, RGB=153,153,255, SURF_ID='INERT'/ Furniture_Chair
&OBST XB=15.30,16.10,2.90,3.40,0,0.50, RGB=153,153,255, SURF_ID='INERT'/ Furniture_Chair
&OBST XB=19.50,19.60,3.00,3.40,0.50,0.60, RGB=153,153,255, SURF_ID='INERT'/ Furniture_Chair
&OBST XB=18.80,19.60,2.90,3.00,0.50,0.80, RGB=153,153,255, SURF_ID='INERT'/ Furniture_Chair
&OBST XB=18.80,18.90,3.00,3.40,0.50,0.60, RGB=153,153,255, SURF_ID='INERT'/ Furniture_Chair
&OBST XB=18.80,19.60,2.90,3.40,0,0.50, RGB=153,153,255, SURF_ID='INERT'/ Furniture_Chair
&OBST XB=11.30,13.00,4.00,6.50,0.70,0.80, RGB=153,102,0, SURF_ID='INERT'/ Furniture_DiningTable
&OBST XB=12.90,13.00,6.40,6.50,0,0.70, RGB=153,102,0, SURF_ID='INERT'/ Furniture_DiningTable
&OBST XB=11.30,11.40,6.40,6.50,0,0.70, RGB=153,102,0, SURF_ID='INERT'/ Furniture_DiningTable
&OBST XB=12.90,13.00,4.00,4.10,0,0.70, RGB=153,102,0, SURF_ID='INERT'/ Furniture_DiningTable
&OBST XB=11.30,11.40,4.00,4.10,0,0.70, RGB=153,102,0, SURF_ID='INERT'/ Furniture_DiningTable
&OBST XB=19.40,19.50,9.50,9.60,0, 0.1000, SURF_ID='Roof Sheathing'/ Furniture_Couch1
&OBST XB=20.20,20.30,9.50,9.60,0,0.1000, SURF_ID='Roof Sheathing'/ Furniture_Couch1
&OBST XB=20.20,20.30,11.20,11.30,0,0.1000, SURF_ID='Roof Sheathing'/ Furniture_Couch1
&OBST XB=19.40,19.50,11.20,11.30,0, 0.1000, SURF_ID='Roof Sheathing'/ Furniture_Couch1
&OBST XB=19.40,20.20,9.60,11.20,0.1000,0.50, SURF_ID='Sofa'/ Furniture_Couch1
&OBST XB=19.40,20.30,9.50,9.60,0.1000,0.70, SURF_ID='Sofa'/ Furniture_Couch1
&OBST XB=19.40,20.30,11.20,11.30,0.1000,0.70, SURF_ID='Sofa'/ Furniture_Couch1
&OBST XB=20.20,20.30,9.60,11.20,0.1000,0.90, SURF_ID='Sofa'/ Furniture_Couch1
&OBST XB=18.30,18.40,13.10,13.20,0,0.1000, SURF_ID='Sofa'/ Furniture_Couch2
&OBST XB=18.30,18.40,13.90,14.00,0,0.1000, SURF_ID='Sofa'/ Furniture_Couch2
&OBST XB=16.60,16.70,13.90,14.00,0,0.1000, SURF_ID='Sofa'/ Furniture_Couch2
&OBST XB=16.60,16.70,13.10,13.20,0,0.1000, SURF_ID='Sofa'/ Furniture_Couch2
&OBST XB=16.70,18.30,13.10,13.90,0.1000,0.50, SURF_ID='Sofa'/ Furniture_Couch2
&OBST XB=18.30,18.40,13.10,14.00,0.1000,0.70, SURF_ID='Sofa'/ Furniture_Couch2
&OBST XB=16.60,16.70,13.10,14.00,0.1000,0.70, SURF_ID='Sofa'/ Furniture_Couch2
&OBST XB=16.70,18.30,13.90,14.00,0.1000,0.90, SURF_ID='Sofa'/ Furniture_Couch2
&OBST XB=21.70,22.40,7.40,8.10,2.40,2.50, COLOR='INVISIBLE', PERMIT_HOLE=.FALSE., SURF_ID='Ceiling Gypsum', DEVC_ID='TIMER'/
E36Pull
&OBST XB=33.60,33.70,5.60,9.10,2.90,3.00, SURF_ID='Glass'/ Window_Steam
&OBST XB=33.60,33.70,5.80,8.90,3.00,3.10, SURF_ID='Glass'/ Window_Steam
&OBST XB=33.60,33.70,5.90,8.80,3.10,3.20, SURF_ID='Glass'/ Window_Steam
&OBST XB=33.60,33.70,6.10,8.60,3.20,3.30, SURF_ID='Glass'/ Window_Steam
&OBST XB=33.60,33.70,6.30,8.40,3.30,3.40, SURF_ID='Glass'/ Window_Steam
&OBST XB=33.60,33.70,6.40,8.30,3.40,3.50, SURF_ID='Glass'/ Window_Steam
&OBST XB=33.60,33.70,6.60,8.10,3.50,3.60, SURF_ID='Glass'/ Window_Steam
&OBST XB=33.60,33.70,6.70,8.00,3.60,3.70, SURF_ID='Glass'/ Window_Steam
&OBST XB=33.60,33.70,6.90,7.80,3.70,3.80, SURF_ID='Glass'/ Window_Steam
&OBST XB=33.60,33.70,7.00,7.70,3.80,3.90, SURF_ID='Glass'/ Window_Steam
&OBST XB=33.60,33.70,7.20,7.50,3.90,4.00, SURF_ID='Glass'/ Window_Steam
&OBST XB=33.60,33.70,5.40,9.30,2.80,2.90, SURF_ID='Glass'/ Window_Steam
&OBST XB=33.60,33.70,5.30,9.40,2.70,2.80, SURF_ID='Glass'/ Window_Steam
&OBST XB=11.30,12.40,14.90,15.00,1.20,2.10, PERMIT_HOLE=.FALSE., SURF_ID='Glass'/ Window_Kitchen Sink
&OBST XB=30.70,30.80,10.00,11.50,1.00,2.00, PERMIT_HOLE=.FALSE., SURF_ID='Glass'/ Window_Master
&OBST XB=16.10,18.90,2.10,2.20,1.00,2.20, PERMIT_HOLE=.FALSE., SURF_ID='Glass'/ Window_Living Room
&OBST XB=5.90,6.60,14.90,15.00,0.60,1.40, PERMIT_HOLE=.FALSE., SURF_ID='Glass'/ Window_west bathroom
&OBST XB=3.30,4.10,14.90,15.00,0.60,1.40, PERMIT_HOLE=.FALSE., SURF_ID='Glass'/ Window_Utility
&OBST XB=7.50,9.30,14.90,15.00,0,2.30, PERMIT_HOLE=.FALSE., SURF_ID='Glass'/ Window_Kitchen Slider
&OBST XB=23.20,23.90,17.40,17.50,0.60,1.40, PERMIT_HOLE=.FALSE., SURF_ID='Glass'/ Window_ExerciseSmall
&OBST XB=33.30,33.40,5.30,6.20,0.80,1.60, PERMIT_HOLE=.FALSE., SURF_ID='Glass'/ Window_Sauna
&OBST XB=27.50,29.30,0.40,0.50,1.30,2.00, PERMIT_HOLE=.FALSE., SURF_ID='Glass'/ Window_Front_Bedroom
&OBST XB=22.10,22.70,3.40,3.50,0.40,2.00, PERMIT_HOLE=.FALSE., SURF_ID='Glass'/ Window_Front Door Left
&OBST XB=30.70,30.80,3.00,3.70,0.60,1.40, RGB=0,204,204, TRANSPARENCY=0.40, PERMIT_HOLE=.FALSE., SURF_ID='Glass'/
Window_Greenhouse
&OBST XB=25.80,29.40,17.40,17.50,0,2.30, PERMIT_HOLE=.FALSE., SURF_ID='Glass'/ Window_ExerciseBig
&OBST XB=0.2000,0.3,8.00,9. 80,0.60,1.40, PERMIT_HOLE=.FALSE., SURF_ID='Glass'/ Window_SideGarage
&OBST XB=11.10,13.00,2.10,2.20,1.00,2.20, PERMIT_HOLE=.FALSE., SURF_ID='Glass'/ Window_Dining Room
&OBST XB=24.10,24.70,3.40,3.50,0.40,2.00, PERMIT_HOLE=.FALSE., SURF_ID='Glass'/ Window_Front Door Right
&OBST XB=15.30,16.20,13.60,14.90,2.30,2.40, PERMIT_HOLE=.FALSE., SURF_ID='Glass', DEVC_ID='TIMER22'/ Solarium_A_Panels
&OBST XB=15.30,16.20,14.90,15.00, -0.1,2.40, PERMIT_HOLE=.FALSE., SURF_ID='Glass', DEVC_ID='TIMER22'/ Solarium_A_Panels
&OBST XB=19.20,20.20,14.90,15.00, -0.1,2.40, PERMIT_HOLE=.FALSE., SURF_ID='Glass', DEVC_ID='TIMER3'/ Solarium_E_Panels
&OBST XB=19.20,20.20,13.60,14.90,2.30,2.40, PERMIT_HOLE=.FALSE., SURF_ID='Glass', DEVC_ID='TIMER4'/ Solarium_1_Panels
&OBST XB=18.20,19.20, 14.90,15.00, -0.1,2.40, PERMIT_HOLE=.FALSE., SURF_ID='Glass', DEVC_ID='TIMER3'/ Solarium_D_Panels
&OBST XB=18.20,19.20,13.60,14.90,2.30,2.40, PERMIT_HOLE=.FALSE., SURF_ID='Glass', DEVC_ID='TIMER3'/ Solarium_D_Panels
&OBST XB=17.20,18.20,14.90,15.00, -0.1,2.40, PERMIT_HOLE=.FALSE., SURF_ID='Glass', DEVC_ID='TIMER3'/ Solarium_C_Panels
&OBST XB=17.20,18.20,13.60,14.90,2.30,2.40, PERMIT_HOLE=.FALSE., SURF_ID='Glass', DEVC_ID='TIMER3'/ Solarium_C_Panels
&OBST XB=16.20,17.20,14.90,15.00, -0.1,2.40, PERMIT_HOLE=.FALSE., SURF_ID='Glass', DEVC_ID='TIMER22'/ Solarium_B_Panels
&OBST XB=16.20,17.20,13.60,14.90,2.30,2.40, PERMIT_HOLE=.FALSE., SURF_ID='Glass', DEVC_ID='TIMER22'/ Solarium_B_Panels
&OBST XB=15.30,20.20,13.50,13.60,2.40,2.50, SURF_ID='Glass'/ SolariumGlassTop
&OBST XB=2.70,14.70,10.00,15.00, -0.1,0, SURF_ID='Wood Floor'/ Flooring_Kitchen
&OBST XB=9.20,14.70,7.90,10.00, -0.1,0, SURF_ID='Wood Floor'/ Flooring_Kitchen
&OBST XB=12.60,14.70,7.60,7.90, -0.1,0, SURF_ID='Wood Floor'/ Flooring_Pantry
&OBST XB=14.70,21.30,7. 60,13.70, -0.1,0, SURF_ID='Wood Floor'/ Flooring_Den
&OBST XB=21.30,21.90,9.00,13.70, -0.1,0, SURF_ID='Wood Floor'/ Flooring_Den
&OBST XB=14.70,20.20,13.70,15.00, -0.1,0, SURF_ID='Tile'/ Flooring_Solarium
&OBST XB=10.10,24.90,2.10,7.60, -0.1,0, SURF_ID='Carpet'/ Flooring_LivDiningRm
&OBST XB=10.10,12.60,7.60,7.90, -0.1,0, SURF_ID='Carpet'/ Flooring_DiningRm
&OBST XB=21.30,24.90,7.60,9.00, -0.1,0, SURF_ID='Carpet'/ Flooring_Hall
&OBST XB=20.20,30.80,13.70,17.50, -0.1,0, SURF_ID='Carpet'/ Flooring_ExerciseRm
&OBST XB=24.90,30.70,7.80,13.70, -0.1,0, SURF_ID='Carpet'/ Flooring_MasterBed
&OBST XB=24.90,30.70,6.30,7.80, -0.1,0, SURF_ID='Carpet'/ Flooring_BathBed
&OBST XB=24.90,27.90,0.40,6.30, -0.1,0, SURF_ID='Carpet'/ Flooring_FrontBedroom
&OBST XB=27.90,30.70,0.40,4.70, -0.1,0, SURF_ID='Carpet'/ Flooring_FrontBedroom
&OBST XB=30.70,33.40,7.60,9.90, -0.1,0, SURF_ID='Carpet'/ Flooring_MBedCloset
&OBST XB=27.90,30.70,4.70,6.30, -0.1,0, SURF_ID='Tile'/ Flooring_FrontBath
&OBST XB=30.70,33.40,4.70,7.60, -0.1,0, SURF_ID='Tile'/ Flooring_SteamRm
&OBST XB=21.90,24.90,9.00,13.70, -0.1,0, SURF_ID='Tile'/ Flooring_MasterBath
&OBST XB=2.70,10.10,2.10,8.00, -0.1,0, SURF_ID='Concrete'/ Flooring_Garage
&OBST XB=2.70,9.20,8.00,10.00, -0.1,0, SURF_ID='Concrete'/ Flooring_Garage
&OBST XB=0.2000,2. 70,2.10,12.10, -0.1,0, SURF_ID='Concrete'/ Flooring_Workshop
&OBST XB=30.70,33.40,0.40,4.70, -0.1,0, SURF_ID='Concrete'/ Flooring_GreenHouse
&OBST XB=2.70,2.80,5.40,6.30,0.1000,2.00, PERMIT_HOLE=.FALSE., SURF_ID='Wood Joists'/ Door_Front Garage Storage
&OBST XB=25.70,27.30,4.70,4.80,0.1000,2.00, COLOR='GRAY 80', PERMIT_HOLE=.FALSE., SURF_ID='INTERIORDOOR'/ Doors_ ABedCloset
&OBST XB=24.20,25.10,4.70,4.80,0.1000,2.00, COLOR='GRAY 80', PERMIT_HOLE=.FALSE., SURF_ID='INTERIORDOOR'/ Doors_ ABed
&OBST XB=23.00,23.90,3.40,3.50,0.1000,2.00, COLOR='GRAY 80', PERMIT_HOLE=.FALSE., SURF_ID='Roof Sheathing', DEVC_ID='TIMER5'/
Doors_ Front Door
&OBST XB=2.70,2.80,12.80,13.60,0.1000,2.00, COLOR='GRAY 80', PERMIT_HOLE=.FALSE., SURF_ID='Roof Sheathing'/ Doors_ PoolsideExit
&OBST XB=1.20,2.10,2.10,2.20,0.1000,2.00, COLOR='GRAY 80', PERMIT_HOLE=.FALSE., SURF_ID='Roof Sheathing'/ Doors_ WorkroomExit
&OBST XB=14.80,15.10,12.00,12.40,0.50,0.60, PERMIT_HOLE=.FALSE., SURF_ID='INERT'/ Obstruction
&HOLE XB=2.96E1,3.00E1,7.90,8.39,3.40,3.81, COLOR='INVISIBLE'/ RoofVent6
&HOLE XB=3.36E1,3.37E1,7.30,7.40,2.70,4.00, COLOR='INVISIBLE'/ Wall_Interior
&HOLE XB=1.18E1,1.28E1,8.90,9.90,2.40,3.60, COLOR='INVISIBLE'/ Hole
&HOLE XB=1.18E1,1.29E1,9.90,1.00E1,3.40,3.50, COLOR='INVISIBLE'/ Hole
&HOLE XB=1.28E1,1.29E1,9.30,9.90,3.40,3.50, COLOR='INVISIBLE'/ Hole
&HOLE XB=9.80,1.02E1,1.09E1,1.14E1,3.50,3.90, COLOR='INVISIBLE'/ Hole
&HOLE XB=2.15E1,2.49E1,2.10,3.40, -1.00E-1,0, COLOR='INVISIBLE'/ Hole_FrontStep
&HOLE XB=2.17E1,2.24E1,7.40,8.10,2.20,2.65, COLOR='INVISIBLE'/ Hole_E36 Ceiling Pull
&HOLE XB=2.845E1,2.845E1,5.90,6.10,2.39,2.51, COLOR='INVISIBLE'/ HoleRegister_DBath
&HOLE XB=2.28E1,2.30E1,5.40,5.50,2.39,2.51, COLOR='INVISIBLE'/ HoleRegister_FrontDoor
&HOLE XB=1.59E1,1.60E1,7.60,7.70,3.00,3.10, COLOR='INVISIBLE'/ HoleRegister_Den
&HOLE XB=1.60E1,1.61E1,7.60,7.70,3.00,3.10, COLOR='INVISIBLE'/ HoleRegister_Den
&HOLE XB=1.61E1,1.62E1,7.60,7.70,3.00,3.10, COLOR='INVISIBLE'/ HoleRegister_Den
&HOLE XB=1.61E1,1.62E1,7.60,7.70,3.10,3.20, COLOR='INVISIBLE'/ HoleRegister_Den
&HOLE XB=1.60E1,1.61E1,7.60,7.70,3.10,3.20, COLOR='INVISIBLE'/ HoleRegister_Den
&HOLE XB=1.59E1,1.60E1,7.60,7.70,3.10,3.20, COLOR='INVISIBLE'/ HoleRegister_Den
&HOLE XB=2.16E1,2.18E1,9.70,1.01E1,2.39,2.51, COLOR='INVISIBLE'/ HoleRegister_Den
&HOLE XB=1.48E1,1.51E1,1.20E1,1.24E1,0,4.00, COLOR='INVISIBLE'/ Hole_Chimney
&HOLE XB=1.51E1,1.52E1,1.17E1,1.27E1,0,5.00E-1, COLOR='INVISIBLE'/ Hole_Chimney
&HOLE XB=1.01E1,1.02E1,6.80,7.50,1.00E-1,3.00E-1, COLOR='INVISIBLE'/ Hole_FurnaceReturn
&HOLE XB=2.73E1,2.75E1,4.60,4.70,2.39,2.51, COLOR='INVISIBLE'/ HoleRegister_GuestBed
&HOLE XB=2.73E1,2.75E1,5.00E-1,6.00E-1,2.39,2.51, COLOR='INVISIBLE'/ HoleRegister_GuestBed
&HOLE XB=2.56E1,2.58E1,7.80,7.90,2.39,2.51, COLOR='INVISIBLE'/ HoleRegister_MasterBed
&HOLE XB=2.56E1,2.58E1,1.37E1,1.38E1,2.39,2.51, COLOR='INVISIBLE'/ HoleRegister_Exercise
&HOLE XB=2.20E1,2.22E1,1.37E1,1.38E1,2.39,2.51, COLOR='INVISIBLE'/ HoleRegister_Exercise
&HOLE XB=1.59E1,1.62E1,7.50,7.60,2.39,2.51, COLOR='INVISIBLE'/ HoleRegister_LivRoom
&HOLE XB=1.85E1,1.88E1,7.50,7.60,2.39,2.51, COLOR='INVISIBLE'/ HoleRegister_LivRoom
&HOLE XB=1.40E1,1.42E1,7.50,7.60,2.39,2.51, COLOR='INVISIBLE'/ HoleRegister_DinRoom
&HOLE XB=1.45E1,1.46E1,1.18E1,1.20E1,2.39,2.51, COLOR='INVISIBLE'/ HoleRegister_Kitch
&HOLE XB=1.06E1,1.08E1,1.19E1,1.20E1,2.39,2.51, COLOR='INVISIBLE'/ HoleRegister_Kitch
&HOLE XB=5.70,5.90,1.19E1,1.20E1,2.39,2.51, COLOR='INVISIBLE'/ HoleRegister_Pantry
&HOLE XB=1.90,2.10,1.155E1,1.165E1,2.39,2.51, COLOR='INVISIBLE'/ HoleRegister_Workshop
&HOLE XB=1.89E1,2.08E1,1.50,1.60,2.30,2.60, COLOR='INVISIBLE'/ HoleSoffit Vent A1
&HOLE XB=-4.00E-1, -3.00E-1,5.30,7.20,2.3,2.60, COLOR='INVISIBLE'/ HoleSoffit Vent B1
&HOLE XB=2.70,4.60,1.50,1.60,2.30,2.60, COLOR='INVISIBLE'/ HoleSoffit Vent A4
&HOLE XB=2.745E1,2.935E1,1.79E1,1.80E1,2.30,2.60, COLOR='INVISIBLE'/ HoleSoffit Vent C4
&HOLE XB=1.35E1,1.54E1,1.50,1.60,2.30,2.60, COLOR='INVISIBLE'/ HoleSoffit Vent A2
&HOLE XB=2.205E1,2.395E1,1.79E1,1.80E1,2.30,2.60, COLOR='INVISIBLE'/ HoleSoffit Vent C3
&HOLE XB=8.10,1.00E1,1.50,1.60,2.30,2.60, COLOR='INVISIBLE'/ HoleSoffit Vent A3
&HOLE XB=1.055E1,1.245E1,1.58E1,1.59E1,2.30,2.60, COLOR='INVISIBLE'/ HoleSoffit Vent C2
&HOLE XB=5.15,7.05,1.58E1,1.59E1,2.30,2.60, COLOR='INVISIBLE'/ HoleSoffit Vent C1
&HOLE XB=2.02E1,2.05E1,4.40,5.20,2.20,2.70, COLOR='INVISIBLE'/ HoleFFPunchDown
&HOLE XB=2.08E1,2.11E1,4.40,5.20,2.20,2.70, COLOR='INVISIBLE'/ HoleFFPunchDown2
&HOLE XB=1.53E1,2.02E1,1.47E1,1.52E1,0,2.30, COLOR='INVISIBLE'/ HoleSolarium
&HOLE XB=2.41E1,2.47E1,3.30,3.60,4.00E-1,2.00, COLOR='INVISIBLE'/ HoleFront Door Right Window
&HOLE XB=3.06E1,3.10E1,1.00E1,1.15E1,1.00,2.00, COLOR='INVISIBLE'/ HoleMaster Window
&HOLE XB=1.61E1,1.89E1,1.90,2.40,1.00,2.20, COLOR='INVISIBLE'/ HoleLiving Room Window
&HOLE XB=5.90,6.60,1.47E1,1.51E1,6.00E-1,1.40, COLOR='INVISIBLE'/ HoleWest bathroom window
&HOLE XB=3.30,4.10,1.47E1,1.52E1,6.00E-1,1.40, COLOR='INVISIBLE'/ HoleUtility Window
&HOLE XB=2.32E1,2.39E1,1.73E1,1.76E1,6.00E-1,1.40, COLOR='INVISIBLE'/ HoleExercise Window
&HOLE XB=3.32E1,3.36E1,5.30,6.20,8.00E-1,1.60, COLOR='INVISIBLE'/ HoleSauna Window
&HOLE XB=3.06E1,3.09E1,3.00,3.70,6.00E-1,1.40, COLOR='INVISIBLE'/ HoleFront bedroom Greenhouse
&HOLE XB=2.75E1,2.93E1,3.00E-1,6.00E-1,1.30,2.00, COLOR='INVISIBLE'/ HoleFront_Bedroom Window
&HOLE XB=2.21E1,2.27E1,3.30,3.60,4.00E-1,2.00, COLOR='INVISIBLE'/ HoleFront Door Left Window
&HOLE XB=2.58E1,2.94E1,1.73E1,1.76E1,0,2.30, COLOR='INVISIBLE'/ HoleExercise Window Wall
&HOLE XB=7.50,9.30,1.47E1,1.52E1,0,2.30, COLOR='INVISIBLE'/ HoleGlass slider kitchen
&HOLE XB=1.13E1,1.24E1,1.47E1,1.52E1,1.20,2.10, COLOR='INVISIBLE'/ HoleKitchen Sink Window
&HOLE XB=1.11E1,1.30E1,1.90,2.40,1.00,2.20, COLOR='INVISIBLE'/ HoleDinning Room Window
&HOLE XB=0.0,5.00E-1,8.00,9.80,6.00E-1,1.40, COLOR='INVISIBLE'/ HoleSide Garage Window
&HOLE XB=2.57E1,2.73E1,4.60,4.90,0,2.00, COLOR='INVISIBLE'/ HoleCloset Door Front Bedroom
&HOLE XB=2.60,2.90,1.28E1,1.36E1,0,2.00, COLOR='INVISIBLE'/ HoleB Side Exterior Doorway
&HOLE XB=3.06E1,3.10E1,7.80,8.70,0,2.00, COLOR='INVISIBLE'/ HoleMB to Bath Doorway
&HOLE XB=3.90,8.90,2.10,2.40,0,2.00, COLOR='INVISIBLE'/ HoleGarage Door
&HOLE XB=2.42E1,2.51E1,4.60,4.90,0,2.00, COLOR='INVISIBLE'/ HoleFront_Right Bedroom Door
&HOLE XB=2.13E1,2.16E1,4.00,5.10,0,2.00, COLOR='INVISIBLE'/ HoleOpening from Fdoor to Living Room
&HOLE XB=1.45E1,1.48E1,4.20,6.30,0,2.00, COLOR='INVISIBLE'/ Holeopening living to dining
&HOLE XB=1.32E1,1.41E1,8.70,9.00,0,2.00, COLOR='INVISIBLE'/ HolePantry door
&HOLE XB=3.06E1,3.09E1,5.30,6.20,0,2.00, COLOR='INVISIBLE'/ HoleRight bathroom
&HOLE XB=2.30E1,2.39E1,3.30,3.60,0,2.00, COLOR='INVISIBLE'/ HoleFront Door
&HOLE XB=2.71E1,2.89E1,1.35E1,1.38E1,0,2.00, COLOR='INVISIBLE'/ HoleMasterBed to Exercise
&HOLE XB=2.31E1,2.40E1,1.34E1,1.39E1,0,2.00, COLOR='INVISIBLE'/ HoleCenter bathroom Rear Door
&HOLE XB=3.06E1,3.09E1,6.50,7.40,0,2.00, COLOR='INVISIBLE'/ Holeright bathroom door2
&HOLE XB=2.31E1,2.40E1,8.80,9.10,0,2.00, COLOR='INVISIBLE'/ HoleBathroom Door
&HOLE XB=2.58E1,2.67E1,7.60,7.80,0,2.00, COLOR='INVISIBLE'/ HoleMasterbedroom Closet
&HOLE XB=2.34E1,2.43E1,7.60,7.80,0,2.00, COLOR='INVISIBLE'/ HoleFire Room Door
&HOLE XB=2.90E1,2.99E1,4.50,5.00,0,2.00, COLOR='INVISIBLE'/ HoleFront Bedroom bathroom
&HOLE XB=5.70,6.60,9.70,1.02E1,0,2.00, COLOR='INVISIBLE'/ HoleInto Garage
&HOLE XB=2.50,3.00,8.00,8.90,0,2.00, COLOR='INVISIBLE'/ HoleRear Garage Storage
&HOLE XB=1.20,2.10,1.90,2.40,0,2.00, COLOR='INVISIBLE'/ HoleDoor_Garage Acces Outside
&HOLE XB=5.70,6.60,1.25E1,1.30E1,0,2.00, COLOR='INVISIBLE'/ HoleRear Bathroom
&HOLE XB=2.50,3.00,5.40,6.30,0,2.00, COLOR='INVISIBLE'/ HoleFront Garage Storage
&HOLE XB=2.30E1,2.37E1,9.00,1.02E1,2.30,3.80, COLOR='INVISIBLE'/ HoleSkylight
&HOLE XB=1.99E1,2.13E1,4.20,5.40,3.20,4.30, COLOR='INVISIBLE'/ HoleRoof Cut
&HOLE XB=2.37E1, 2.42E1,6.50,7.00,2.30,2.80, COLOR='INVISIBLE'/ BurnerHole
&VENT SURF_ID='CouchBurner', XB=19.39,19.39,9.60,11.20,0.1000,0.50/ Furniture_Couch1
&VENT SURF_ID='CouchBurner', XB=19.40,20.20,9.60,11.20,0.51,0.51/ Furniture_Couch1
&VENT SURF_ID='CouchBurner', XB=20.19,20.19,9.60,11.20,0.50,0.90/ Furniture_Couch1
&VENT SURF_ID='CouchBurner', XB=20.31,20.31,9.60,11.20,0.1000,0.90/ Furniture_Couch1
&VENT SURF_ID='CouchBurner', XB=19.40,20.30,9.49,9.49,0.1000,0.70/ Furniture_Couch1
&VENT SURF_ID='CouchBurner', XB=19.40,20.30,11.31,11.31,0.1000,0.70/ Furniture_Couch1
&VENT SURF_ID='CouchBurner2', XB=16.70,18.30,13.09,13.09,0.1000,0.50/ Furniture_Couch2
&VENT SURF_ID='CouchBurner2', XB=16.70,18.30,13.10,13.90,0.51,0.51/ Furniture_Couch2
&VENT SURF_ID='CouchBurner2', XB=16.70,18.30,13.89,13.89,0.50,0.90/ Furniture_Couch2
&VENT SURF_ID='CouchBurner2', XB=16.70,18.30,14.01,14.01,0.1000,0.90/ Furniture_Couch2
&VENT SURF_ID='CouchBurner2', XB=18.41,18.41,13.10,14.00,0.1000,0.70/ Furniture_Couch2
&VENT SURF_ID='CouchBurner2', XB=16.59,16.59,13.10,14.00,0.1000,0.70/ Furniture_Couch2
&VENT SURF_ID='OPEN', XB=-21.40,53.00, -10.00, -10.00, -0.1,11.00, COLOR='INVISIBLE'/ BndVent
&VENT SURF_ID='INERT', XB=-21.40,53.00, -10.00,27.20, -0.1, -0.1, COLOR='INVISIBLE'/ BndVent
&VENT SURF_ID='OPEN', XB=-21.40,53.00, -10.00,27.20,11.00,11.00, COLOR='INVISIBLE'/ BndVent
&VENT SURF_ID='OPEN', XB=-21.40, -21.40, -10.00,27.20, -0.1,11.00, COLOR='INVISIBLE'/ BndVent
&VENT SURF_ID='OPEN', XB=53.00,53.00, -10.00,27.20, -0.1,11.00, COLOR='INVISIBLE'/ BndVent
&VENT SURF_ID='Wind', XB=-21.40,53.00,27.20,27.20, -0.1,11.00, IOR=-2, COLOR='INVISIBLE'/ BndVent
&BNDF QUANTITY='MASS FLUX', SPEC_ID='fuel'/
&ISOF QUANTITY='VOLUME FRACTION', SPEC_ID='oxygen', VALUE=0.1500/
&SLCF QUANTITY='TEMPERATURE', PBX=18.00/
&SLCF QUANTITY='VELOCITY', VECTOR=.TRUE., PBX=18.00/
&SLCF QUANTITY='VOLUME FRACTION', SPEC_ID='fuel', PBX=19.50/
&SLCF QUANTITY='VELOCITY', VECTOR=.TRUE., PBX=19.80/
&SLCF QUANTITY='VOLUME FRACTION', SPEC_ID='oxygen', PBX=19.90/
&SLCF QUANTITY='VOLUME FRACTION', SPEC_ID='oxygen', PBX=22.20/
&SLCF QUANTITY='TEMPERATURE', VECTOR=.TRUE., PBX=22.20/
&SLCF QUANTITY='TEMPERATURE', VECTOR=.TRUE., PBX=23.50/
&SLCF QUANTITY='VOLUME FRACTION', SPEC_ID='oxygen', PBY=10.50/
&SLCF QUANTITY='TEMPERATURE', VECTOR=.TRUE. , PBY=4.60/
&SLCF QUANTITY='TEMPERATURE', PBY=8.30/
&SLCF QUANTITY='VOLUME FRACTION', SPEC_ID='oxygen', PBY=8.50/
&SLCF QUANTITY='PRESSURE', PBZ=1.00/
&SLCF QUANTITY='TEMPERATURE', PBZ=1.00/
&SLCF QUANTITY='TEMPERATURE', VECTOR=.TRUE., PBZ=1.50/
&SLCF QUANTITY='VELOCITY', VECTOR=.TRUE., PBZ=1.50/
&SLCF QUANTITY='VELOCITY', VECTOR=.TRUE., PBZ=2.20/
&SLCF QUANTITY='PRESSURE', PBZ=2.60/
&SLCF QUANTITY='VELOCITY', VECTOR=.TRUE., PBZ=2.80/
&TAIL /
